
     RDKit          3D

 35 38  0  0  0  0  0  0  0  0999 V2000
  -18.6892   16.8763   74.4403 O   0  0  0  0  0  0  0  0  0  0  0  0
  -20.9400   22.9169   69.2785 C   0  0  0  0  0  0  0  0  0  0  0  0
  -18.4573   20.7438   68.8813 C   0  0  0  0  0  0  0  0  0  0  0  0
  -17.4220   19.0273   74.6142 C   0  0  0  0  0  0  0  0  0  0  0  0
  -15.2718   24.3379   65.8254 C   0  0  0  0  0  0  0  0  0  0  0  0
  -17.6109   21.6026   68.0182 C   0  0  0  0  0  0  0  0  0  0  0  0
  -17.3800   21.1915   66.5945 C   0  0  0  0  0  0  0  0  0  0  0  0
  -20.8206   19.8323   69.4360 C   0  0  0  0  0  0  0  0  0  0  0  0
  -17.9405   23.1196   68.0987 C   0  0  0  0  0  0  0  0  0  0  0  0
  -13.6779   22.9507   71.0113 C   0  0  0  0  0  0  0  0  0  0  0  0
  -14.6714   22.0811   71.6953 C   0  0  0  0  0  0  0  0  0  0  0  0
  -20.6763   21.9181   68.0630 C   0  0  0  0  0  0  0  0  0  0  0  0
  -15.8373   19.2757   70.4529 O   0  0  0  0  0  0  0  0  0  0  0  0
  -17.7508   17.5775   75.1152 C   0  0  0  0  0  0  0  0  0  0  0  0
  -22.2577   20.3568   69.1263 C   0  0  0  0  0  0  0  0  0  0  0  0
  -17.6033   19.0166   73.0346 C   0  0  0  0  0  0  0  0  0  0  0  0
  -16.6769   23.8883   67.7399 C   0  0  0  0  0  0  0  0  0  0  0  0
  -18.0012   20.3513   70.2503 C   0  0  0  0  0  0  0  0  0  0  0  0
  -13.3990   23.0871   73.4643 C   0  0  0  0  0  0  0  0  0  0  0  0
  -15.3612   21.6578   73.9961 O   0  0  0  0  0  0  0  0  0  0  0  0
  -17.7328   22.3701   73.5896 C   0  0  0  0  0  0  0  0  0  0  0  0
  -16.2636   19.5796   75.3176 O   0  0  0  0  0  0  0  0  0  0  0  0
  -16.5724   16.9844   75.4096 O   0  0  0  0  0  0  0  0  0  0  0  0
  -13.1605   23.7926   72.1287 C   0  0  0  0  0  0  0  0  0  0  0  0
  -16.7578   20.1844   72.4851 C   0  0  0  0  0  0  0  0  0  0  0  0
  -15.8310   21.7174   70.7241 C   0  0  0  0  0  0  0  0  0  0  0  0
  -16.7628   22.3199   65.8286 O   0  0  0  0  0  0  0  0  0  0  0  0
  -14.7004   22.3099   67.2769 C   0  0  0  0  0  0  0  0  0  0  0  0
  -22.0627   21.2407   67.8488 C   0  0  0  0  0  0  0  0  0  0  0  0
  -14.2241   21.8735   73.1029 C   0  0  0  0  0  0  0  0  0  0  0  0
  -16.6271   20.3973   70.9598 C   0  0  0  0  0  0  0  0  0  0  0  0
  -19.1614   18.9863   72.7857 C   0  0  0  0  0  0  0  0  0  0  0  0
  -16.6418   21.2993   73.4588 C   0  0  0  0  0  0  0  0  0  0  0  0
  -19.8735   20.6898   68.5641 C   0  0  0  0  0  0  0  0  0  0  0  0
  -15.8350   23.1781   66.6447 C   0  0  0  0  0  0  0  0  0  0  0  0
  1 14  1  0
  2 12  1  0
  3  6  1  0
  3 18  1  0
  3 34  1  0
  4 14  1  0
  4 16  1  0
  4 22  1  0
  5 35  1  0
  6  7  1  0
  6  9  1  0
  7 27  1  0
  8 15  1  0
  8 34  1  0
  9 17  1  0
 10 11  1  0
 10 24  1  0
 11 26  1  0
 11 30  1  0
 12 29  1  0
 12 34  1  0
 13 31  1  0
 14 23  1  0
 15 29  1  0
 16 25  1  0
 16 32  1  0
 17 35  1  0
 18 31  1  0
 19 24  1  0
 19 30  1  0
 20 30  1  0
 20 33  1  0
 21 33  1  0
 25 31  1  0
 25 33  1  0
 26 31  1  0
 27 35  1  0
 28 35  1  0
M  END
>  <ID>  (1) 
conformer_0

$$$$
