
     RDKit          3D

 37 41  0  0  0  0  0  0  0  0999 V2000
  -20.2021   23.5459   65.7723 C   0  0  0  0  0  0  0  0  0  0  0  0
  -13.9457   23.7128   70.4074 C   0  0  0  0  0  0  0  0  0  0  0  0
  -18.2059   19.5539   73.9516 N   0  0  0  0  0  0  0  0  0  0  0  0
  -18.5585   17.2580   73.5556 C   0  0  0  0  0  0  0  0  0  0  0  0
  -16.1066   21.4620   74.5468 C   0  0  0  0  0  0  0  0  0  0  0  0
  -20.0205   22.7812   66.9649 C   0  0  0  0  0  0  0  0  0  0  0  0
  -18.8856   20.7966   69.1837 C   0  0  0  0  0  0  0  0  0  0  0  0
  -16.1206   21.2279   68.7318 N   0  0  0  0  0  0  0  0  0  0  0  0
  -16.5369   20.4142   69.8228 C   0  0  0  0  0  0  0  0  0  0  0  0
  -17.9142   20.0349   70.0848 C   0  0  0  0  0  0  0  0  0  0  0  0
  -18.7969   22.2084   69.0796 C   0  0  0  0  0  0  0  0  0  0  0  0
  -17.2082   19.3132   74.8587 C   0  0  0  0  0  0  0  0  0  0  0  0
  -18.8667   18.5528   73.2755 C   0  0  0  0  0  0  0  0  0  0  0  0
  -16.3530   20.3988   75.4683 N   0  0  0  0  0  0  0  0  0  0  0  0
  -20.8367   21.6861   66.9152 C   0  0  0  0  0  0  0  0  0  0  0  0
  -15.0346   21.7585   71.2559 C   0  0  0  0  0  0  0  0  0  0  0  0
  -16.9279   18.0034   75.2201 C   0  0  0  0  0  0  0  0  0  0  0  0
  -16.0511   20.1374   76.7795 O   0  0  0  0  0  0  0  0  0  0  0  0
  -21.9233   21.8944   66.0355 O   0  0  0  0  0  0  0  0  0  0  0  0
  -15.1819   22.2850   68.8596 C   0  0  0  0  0  0  0  0  0  0  0  0
  -17.6307   16.9631   74.5894 C   0  0  0  0  0  0  0  0  0  0  0  0
  -20.7365   20.4665   67.5860 C   0  0  0  0  0  0  0  0  0  0  0  0
  -21.4103   23.0529   65.2086 O   0  0  0  0  0  0  0  0  0  0  0  0
  -19.2353   23.0801   68.0693 C   0  0  0  0  0  0  0  0  0  0  0  0
  -13.6497   22.9788   72.7140 C   0  0  0  0  0  0  0  0  0  0  0  0
  -15.2472   19.3559   71.4573 O   0  0  0  0  0  0  0  0  0  0  0  0
  -15.7073   20.5083   70.9688 C   0  0  0  0  0  0  0  0  0  0  0  0
  -14.6097   22.0081   72.5547 C   0  0  0  0  0  0  0  0  0  0  0  0
  -15.0115   22.1643   66.6518 N   0  0  0  0  0  0  0  0  0  0  0  0
  -15.0459   23.1574   67.6907 C   0  0  0  0  0  0  0  0  0  0  0  0
  -19.8395   20.0478   68.5318 C   0  0  0  0  0  0  0  0  0  0  0  0
  -19.2817   24.1475   65.2358 O   0  0  0  0  0  0  0  0  0  0  0  0
  -14.7389   22.6028   70.1852 C   0  0  0  0  0  0  0  0  0  0  0  0
  -13.0553   22.9791   73.9228 O   0  0  0  0  0  0  0  0  0  0  0  0
  -13.3306   23.8603   71.6654 C   0  0  0  0  0  0  0  0  0  0  0  0
  -17.1899   22.3148   74.2027 O   0  0  0  0  0  0  0  0  0  0  0  0
  -15.0200   21.3202   73.7228 N   0  0  0  0  0  0  0  0  0  0  0  0
  1  6  1  0
  1 23  1  0
  1 32  2  0
  2 33  2  0
  2 35  1  0
  3 12  2  0
  3 13  1  0
  4 13  2  0
  4 21  1  0
  5 14  1  0
  5 36  2  0
  5 37  1  0
  6 15  1  0
  6 24  1  0
  7 10  1  0
  7 11  1  0
  7 31  2  0
  8  9  1  0
  8 20  2  0
  9 10  1  0
  9 27  1  0
 11 24  2  0
 12 14  1  0
 12 17  1  0
 14 18  1  0
 15 19  1  0
 15 22  2  0
 16 27  1  0
 16 28  1  0
 16 33  1  0
 17 21  2  0
 19 23  1  0
 20 30  1  0
 20 33  1  0
 22 31  1  0
 25 28  2  0
 25 34  1  0
 25 35  1  0
 26 27  1  0
 28 37  1  0
 29 30  1  0
M  END
>  <ID>  (1) 
conformer_0

$$$$
