
     RDKit          3D

 43 45  0  0  0  0  0  0  0  0999 V2000
  -19.5122   21.1425   70.1191 O   0  0  0  0  0  0  0  0  0  0  0  0
  -16.4556   21.9489   75.6299 C   0  0  0  0  0  0  0  0  0  0  0  0
  -14.1536   22.3201   71.5924 C   0  0  0  0  0  0  0  0  0  0  0  0
  -17.2031   22.3528   66.5229 C   0  0  0  0  0  0  0  0  0  0  0  0
  -18.2176   16.7287   73.2961 C   0  0  0  0  0  0  0  0  0  0  0  0
  -18.5531   20.1963   72.4672 C   0  0  0  0  0  0  0  0  0  0  0  0
  -18.6788   21.6422   72.5348 O   0  0  0  0  0  0  0  0  0  0  0  0
  -13.3906   22.6402   72.7861 C   0  0  0  0  0  0  0  0  0  0  0  0
  -17.1951   18.7506   71.0381 O   0  0  0  0  0  0  0  0  0  0  0  0
  -18.1106   24.6192   65.6859 C   0  0  0  0  0  0  0  0  0  0  0  0
  -22.2196   21.0893   69.3452 C   0  0  0  0  0  0  0  0  0  0  0  0
  -18.0190   22.2030   73.7281 C   0  0  0  0  0  0  0  0  0  0  0  0
  -18.2851   18.0704   73.8658 C   0  0  0  0  0  0  0  0  0  0  0  0
  -15.5482   21.9312   71.8619 N   0  0  0  0  0  0  0  0  0  0  0  0
  -17.1691   19.7216   72.1353 C   0  0  0  0  0  0  0  0  0  0  0  0
  -20.0209   22.0139   66.5400 C   0  0  0  0  0  0  0  0  0  0  0  0
  -21.5246   19.8476   69.7777 C   0  0  0  0  0  0  0  0  0  0  0  0
  -16.2856   19.5150   75.6045 C   0  0  0  0  0  0  0  0  0  0  0  0
  -20.7887   23.9526   67.7675 C   0  0  0  0  0  0  0  0  0  0  0  0
  -17.1183   18.9511   73.4714 C   0  0  0  0  0  0  0  0  0  0  0  0
  -13.6389   21.9762   73.8524 O   0  0  0  0  0  0  0  0  0  0  0  0
  -15.8626   20.5303   72.0122 C   0  0  0  0  0  0  0  0  0  0  0  0
  -21.1958   21.8829   68.6295 C   0  0  0  0  0  0  0  0  0  0  0  0
  -16.9815   19.9979   74.5041 O   0  0  0  0  0  0  0  0  0  0  0  0
  -16.3949   21.7097   67.4845 C   0  0  0  0  0  0  0  0  0  0  0  0
  -14.9423   22.1920   69.3983 C   0  0  0  0  0  0  0  0  0  0  0  0
  -14.8145   19.7828   71.8765 O   0  0  0  0  0  0  0  0  0  0  0  0
  -21.0318   21.3229   67.3125 C   0  0  0  0  0  0  0  0  0  0  0  0
  -15.7392   24.1143   66.2806 C   0  0  0  0  0  0  0  0  0  0  0  0
  -16.8629   21.3525   74.2481 C   0  0  0  0  0  0  0  0  0  0  0  0
  -15.2997   24.9840   65.4092 O   0  0  0  0  0  0  0  0  0  0  0  0
  -14.9324   23.6179   67.3279 C   0  0  0  0  0  0  0  0  0  0  0  0
  -14.1643   23.0267   70.2626 C   0  0  0  0  0  0  0  0  0  0  0  0
  -18.6381   18.2115   75.1876 O   0  0  0  0  0  0  0  0  0  0  0  0
  -20.7844   23.1638   68.9156 C   0  0  0  0  0  0  0  0  0  0  0  0
  -19.5661   24.3578   65.6717 C   0  0  0  0  0  0  0  0  0  0  0  0
  -20.0557   22.1775   69.4118 C   0  0  0  0  0  0  0  0  0  0  0  0
  -12.6059   23.5810   72.8181 O   0  0  0  0  0  0  0  0  0  0  0  0
  -20.0548   23.4536   66.6619 N   0  0  0  0  0  0  0  0  0  0  0  0
  -15.3707   22.5009   68.0594 C   0  0  0  0  0  0  0  0  0  0  0  0
  -20.4173   20.1664   70.7228 C   0  0  0  0  0  0  0  0  0  0  0  0
  -17.0138   23.6628   66.1322 C   0  0  0  0  0  0  0  0  0  0  0  0
  -15.8041   18.2071   75.5099 O   0  0  0  0  0  0  0  0  0  0  0  0
  1 37  1  0
  1 41  1  0
  2 30  1  0
  3  8  1  0
  3 14  1  0
  3 33  1  0
  4 25  2  0
  4 42  1  0
  5 13  1  0
  6  7  1  0
  6 15  1  0
  7 12  1  0
  8 21  2  0
  8 38  1  0
  9 15  1  0
 10 36  1  0
 10 42  2  3
 11 17  1  0
 11 23  1  0
 12 30  1  0
 13 20  1  0
 13 34  1  0
 14 22  1  0
 15 20  1  0
 15 22  1  0
 16 28  1  0
 16 39  1  0
 17 41  1  0
 18 24  1  0
 18 43  1  0
 19 35  1  0
 19 39  1  0
 22 27  2  0
 23 28  1  0
 23 35  1  0
 24 30  1  0
 25 40  1  0
 26 33  1  0
 26 40  2  3
 29 31  1  0
 29 32  2  0
 29 42  1  0
 32 40  1  0
 35 37  1  0
 36 39  1  0
M  END
>  <ID>  (1) 
conformer_0

$$$$
