
     RDKit          3D

 36 40  0  0  0  0  0  0  0  0999 V2000
  -20.8711   23.4107   68.0440 C   0  0  0  0  0  0  0  0  0  0  0  0
  -17.1338   18.7323   74.4347 C   0  0  0  0  0  0  0  0  0  0  0  0
  -13.2472   21.8686   66.9937 C   0  0  0  0  0  0  0  0  0  0  0  0
  -14.9243   21.8817   68.7902 C   0  0  0  0  0  0  0  0  0  0  0  0
  -19.3271   21.3878   71.1124 C   0  0  0  0  0  0  0  0  0  0  0  0
  -19.1823   18.8696   73.2464 O   0  0  0  0  0  0  0  0  0  0  0  0
  -17.5078   20.2202   74.3233 C   0  0  0  0  0  0  0  0  0  0  0  0
  -14.2004   22.3748   74.2146 O   0  0  0  0  0  0  0  0  0  0  0  0
  -18.7329   21.2594   72.3994 C   0  0  0  0  0  0  0  0  0  0  0  0
  -18.7805   20.2049   73.4394 C   0  0  0  0  0  0  0  0  0  0  0  0
  -14.3321   23.4870   73.2712 C   0  0  0  0  0  0  0  0  0  0  0  0
  -14.9722   24.0278   67.6718 C   0  0  0  0  0  0  0  0  0  0  0  0
  -19.9578   22.3067   70.2406 C   0  0  0  0  0  0  0  0  0  0  0  0
  -19.5292   20.2205   68.3287 C   0  0  0  0  0  0  0  0  0  0  0  0
  -18.6871   16.8969   74.5871 N   0  0  0  0  0  0  0  0  0  0  0  0
  -14.4667   22.3229   70.1620 O   0  0  0  0  0  0  0  0  0  0  0  0
  -14.7115   21.8588   71.4123 C   0  0  0  0  0  0  0  0  0  0  0  0
  -19.8612   19.0524   68.8737 N   0  0  0  0  0  0  0  0  0  0  0  0
  -13.9745   22.8478   67.9277 C   0  0  0  0  0  0  0  0  0  0  0  0
  -13.1812   24.0070   72.5617 F   0  0  0  0  0  0  0  0  0  0  0  0
  -14.4950   20.6334   71.6268 O   0  0  0  0  0  0  0  0  0  0  0  0
  -20.4999   22.3471   68.9607 C   0  0  0  0  0  0  0  0  0  0  0  0
  -21.6023   21.1544   67.1985 C   0  0  0  0  0  0  0  0  0  0  0  0
  -20.5594   21.1643   68.2252 N   0  0  0  0  0  0  0  0  0  0  0  0
  -16.7895   20.3611   68.0938 C   0  0  0  0  0  0  0  0  0  0  0  0
  -15.4171   22.8476   72.3382 C   0  0  0  0  0  0  0  0  0  0  0  0
  -15.7895   21.3019   67.6618 C   0  0  0  0  0  0  0  0  0  0  0  0
  -16.4503   20.9878   73.6205 N   0  0  0  0  0  0  0  0  0  0  0  0
  -16.1098   18.5950   75.3854 O   0  0  0  0  0  0  0  0  0  0  0  0
  -16.1851   22.1827   66.6031 O   0  0  0  0  0  0  0  0  0  0  0  0
  -16.4408   22.3984   73.4408 C   0  0  0  0  0  0  0  0  0  0  0  0
  -15.4737   21.6238   74.4497 C   0  0  0  0  0  0  0  0  0  0  0  0
  -18.2030   20.4471   67.8572 C   0  0  0  0  0  0  0  0  0  0  0  0
  -16.3336   23.5990   67.0299 C   0  0  0  0  0  0  0  0  0  0  0  0
  -18.2566   17.9360   73.7988 C   0  0  0  0  0  0  0  0  0  0  0  0
  -21.6171   22.6362   66.8985 C   0  0  0  0  0  0  0  0  0  0  0  0
  1 22  1  0
  1 36  1  0
  2  7  1  0
  2 29  1  0
  2 35  1  0
  3 19  1  0
  4 16  1  0
  4 19  1  0
  4 27  1  0
  5  9  1  0
  5 13  1  0
  6 10  1  0
  6 35  1  0
  7 10  1  0
  7 28  1  0
  8 11  1  0
  8 32  1  0
  9 10  1  0
 11 20  1  0
 11 26  1  0
 12 19  1  0
 12 34  1  0
 13 22  2  0
 14 18  2  0
 14 24  1  0
 14 33  1  0
 15 35  1  0
 16 17  1  0
 17 21  2  0
 17 26  1  0
 22 24  1  0
 23 24  1  0
 23 36  1  0
 25 27  1  0
 25 33  1  0
 26 31  1  0
 27 30  1  0
 28 31  1  0
 28 32  1  0
 30 34  1  0
M  END
>  <ID>  (1) 
conformer_0

$$$$
