
     RDKit          3D

 25 26  0  0  0  0  0  0  0  0999 V2000
  -17.0019   18.6675   73.8765 C   0  0  0  0  0  0  0  0  0  0  0  0
  -19.7218   21.2548   68.0194 C   0  0  0  0  0  0  0  0  0  0  0  0
  -13.6637   23.5051   72.0248 C   0  0  0  0  0  0  0  0  0  0  0  0
  -17.0757   21.0764   69.6583 C   0  0  0  0  0  0  0  0  0  0  0  0
  -15.6319   21.9052   71.6501 O   0  0  0  0  0  0  0  0  0  0  0  0
  -16.3421   19.5782   72.9861 N   0  0  0  0  0  0  0  0  0  0  0  0
  -17.3790   21.6159   67.2806 C   0  0  0  0  0  0  0  0  0  0  0  0
  -14.7142   21.3770   72.6384 C   0  0  0  0  0  0  0  0  0  0  0  0
  -18.6742   16.8788   74.0121 N   0  0  0  0  0  0  0  0  0  0  0  0
  -18.3935   18.1873   73.4468 C   0  0  0  0  0  0  0  0  0  0  0  0
  -18.4355   20.8650   70.0511 C   0  0  0  0  0  0  0  0  0  0  0  0
  -16.6979   21.8578   66.2129 O   0  0  0  0  0  0  0  0  0  0  0  0
  -21.8509   19.9975   69.2881 C   0  0  0  0  0  0  0  0  0  0  0  0
  -16.8817   19.1904   75.2998 C   0  0  0  0  0  0  0  0  0  0  0  0
  -18.7506   21.6028   67.1749 C   0  0  0  0  0  0  0  0  0  0  0  0
  -16.0720   19.5785   71.5051 C   0  0  0  0  0  0  0  0  0  0  0  0
  -15.5547   19.2920   75.8192 O   0  0  0  0  0  0  0  0  0  0  0  0
  -15.4237   20.5264   73.6523 C   0  0  0  0  0  0  0  0  0  0  0  0
  -14.2240   23.6609   73.3451 C   0  0  0  0  0  0  0  0  0  0  0  0
  -16.0651   20.8993   70.7488 C   0  0  0  0  0  0  0  0  0  0  0  0
  -16.6287   21.4001   68.4120 C   0  0  0  0  0  0  0  0  0  0  0  0
  -20.7078   20.3191   70.0181 O   0  0  0  0  0  0  0  0  0  0  0  0
  -19.6494   20.8188   69.3133 C   0  0  0  0  0  0  0  0  0  0  0  0
  -18.6606   20.6895   71.3572 O   0  0  0  0  0  0  0  0  0  0  0  0
  -13.6373   22.3127   72.9847 C   0  0  0  0  0  0  0  0  0  0  0  0
  1  6  1  0
  1 10  1  0
  1 14  1  0
  2 15  2  0
  2 23  1  0
  3 19  1  0
  4 11  1  0
  4 20  1  0
  4 21  1  0
  5  8  1  0
  5 20  1  0
  6 16  1  0
  6 18  1  0
  7 12  1  0
  7 15  1  0
  7 21  2  0
  8 18  1  0
  8 25  1  0
  9 10  1  0
 11 23  2  0
 11 24  1  0
 13 22  1  0
 14 17  1  0
 16 20  1  0
 19 25  1  0
 22 23  1  0
M  END
>  <ID>  (1) 
conformer_0

$$$$
