
     RDKit          3D

 33 36  0  0  0  0  0  0  0  0999 V2000
  -16.6432   21.5849   75.1113 C   0  0  0  0  0  0  0  0  0  0  0  0
  -13.1372   24.1348   71.1648 C   0  0  0  0  0  0  0  0  0  0  0  0
  -16.1896   18.5143   74.8889 O   0  0  0  0  0  0  0  0  0  0  0  0
  -18.5798   16.5299   75.1098 O   0  0  0  0  0  0  0  0  0  0  0  0
  -19.2806   21.6005   68.4204 C   0  0  0  0  0  0  0  0  0  0  0  0
  -19.7514   22.4268   66.3064 O   0  0  0  0  0  0  0  0  0  0  0  0
  -17.3069   20.5798   71.3426 C   0  0  0  0  0  0  0  0  0  0  0  0
  -13.9204   22.9817   70.6123 C   0  0  0  0  0  0  0  0  0  0  0  0
  -17.1085   20.7264   68.9446 C   0  0  0  0  0  0  0  0  0  0  0  0
  -18.2639   20.6019   73.6848 C   0  0  0  0  0  0  0  0  0  0  0  0
  -16.7412   20.8471   73.7495 C   0  0  0  0  0  0  0  0  0  0  0  0
  -13.3402   24.3787   72.5474 O   0  0  0  0  0  0  0  0  0  0  0  0
  -12.1278   24.5413   70.1359 C   0  0  0  0  0  0  0  0  0  0  0  0
  -14.9935   22.8318   73.6706 C   0  0  0  0  0  0  0  0  0  0  0  0
  -18.4004   21.0008   69.2582 C   0  0  0  0  0  0  0  0  0  0  0  0
  -16.6483   21.0084   67.6447 C   0  0  0  0  0  0  0  0  0  0  0  0
  -17.5629   18.6105   74.9132 C   0  0  0  0  0  0  0  0  0  0  0  0
  -17.5710   21.5685   66.7495 C   0  0  0  0  0  0  0  0  0  0  0  0
  -18.2064   17.3739   74.2517 C   0  0  0  0  0  0  0  0  0  0  0  0
  -18.5003   19.6798   74.7743 N   0  0  0  0  0  0  0  0  0  0  0  0
  -15.4887   19.5331   70.2770 O   0  0  0  0  0  0  0  0  0  0  0  0
  -16.4829   20.2562   70.1384 C   0  0  0  0  0  0  0  0  0  0  0  0
  -15.2817   23.0298   71.1831 O   0  0  0  0  0  0  0  0  0  0  0  0
  -18.7831   20.6766   70.7170 C   0  0  0  0  0  0  0  0  0  0  0  0
  -20.1744   21.3865   70.7095 C   0  0  0  0  0  0  0  0  0  0  0  0
  -16.4970   20.8021   76.2911 O   0  0  0  0  0  0  0  0  0  0  0  0
  -15.4424   22.2730   72.3370 C   0  0  0  0  0  0  0  0  0  0  0  0
  -13.5741   23.3829   73.6204 C   0  0  0  0  0  0  0  0  0  0  0  0
  -18.8644   21.8690   67.1357 C   0  0  0  0  0  0  0  0  0  0  0  0
  -17.2155   21.7937   65.5019 O   0  0  0  0  0  0  0  0  0  0  0  0
  -20.5422   21.8042   69.1789 C   0  0  0  0  0  0  0  0  0  0  0  0
  -18.4830   17.4810   73.0376 O   0  0  0  0  0  0  0  0  0  0  0  0
  -16.2993   21.1331   72.3410 N   0  0  0  0  0  0  0  0  0  0  0  0
  1 11  1  0
  1 26  1  0
  2  8  1  0
  2 12  1  0
  2 13  1  0
  3 17  2  0
  4 19  2  0
  5 15  2  0
  5 29  1  0
  5 31  1  0
  6 29  1  0
  7 22  1  0
  7 24  1  0
  7 33  1  0
  8 23  1  0
  9 15  1  0
  9 16  2  0
  9 22  1  0
 10 11  1  0
 10 20  1  0
 11 33  1  0
 12 28  1  0
 14 27  1  0
 14 28  1  0
 15 24  1  0
 16 18  1  0
 17 19  1  0
 17 20  1  0
 18 29  2  0
 18 30  1  0
 19 32  1  0
 21 22  2  0
 23 27  1  0
 24 25  1  0
 25 31  1  0
 27 33  1  0
M  END
>  <ID>  (1) 
conformer_0

$$$$
