
     RDKit          3D

 31 33  0  0  0  0  0  0  0  0999 V2000
  -17.0716   22.5108   67.8986 C   0  0  0  0  0  0  0  0  0  0  0  0
  -20.0046   20.7273   69.4603 C   0  0  0  0  0  0  0  0  0  0  0  0
  -22.2740   20.1860   67.8850 O   0  0  0  0  0  0  0  0  0  0  0  0
  -16.9885   19.6769   74.8007 C   0  0  0  0  0  0  0  0  0  0  0  0
  -15.4968   21.9176   73.6085 C   0  0  0  0  0  0  0  0  0  0  0  0
  -13.3556   23.1873   73.6900 C   0  0  0  0  0  0  0  0  0  0  0  0
  -15.8912   17.6122   75.4034 O   0  0  0  0  0  0  0  0  0  0  0  0
  -16.3926   22.0606   69.1585 C   0  0  0  0  0  0  0  0  0  0  0  0
  -20.6295   21.7540   68.5084 C   0  0  0  0  0  0  0  0  0  0  0  0
  -18.7357   21.2748   70.0540 C   0  0  0  0  0  0  0  0  0  0  0  0
  -16.0890   22.6603   66.8007 C   0  0  0  0  0  0  0  0  0  0  0  0
  -19.2305   17.6068   73.7070 N   0  0  0  0  0  0  0  0  0  0  0  0
  -14.1135   22.0353   73.0464 C   0  0  0  0  0  0  0  0  0  0  0  0
  -16.5196   22.6760   65.6326 O   0  0  0  0  0  0  0  0  0  0  0  0
  -17.7057   17.5182   73.7330 C   0  0  0  0  0  0  0  0  0  0  0  0
  -16.6263   21.1398   72.8426 C   0  0  0  0  0  0  0  0  0  0  0  0
  -18.3970   21.8352   67.6122 C   0  0  0  0  0  0  0  0  0  0  0  0
  -19.5306   22.7390   68.1618 C   0  0  0  0  0  0  0  0  0  0  0  0
  -15.6242   20.1243   70.6210 C   0  0  0  0  0  0  0  0  0  0  0  0
  -17.3098   21.8619   70.3441 C   0  0  0  0  0  0  0  0  0  0  0  0
  -15.4853   20.7709   69.1329 C   0  0  0  0  0  0  0  0  0  0  0  0
  -17.2066   18.1561   75.1000 C   0  0  0  0  0  0  0  0  0  0  0  0
  -16.1702   20.4212   75.6415 O   0  0  0  0  0  0  0  0  0  0  0  0
  -16.6295   19.7056   73.3350 C   0  0  0  0  0  0  0  0  0  0  0  0
  -13.5120   21.8189   71.8418 O   0  0  0  0  0  0  0  0  0  0  0  0
  -21.2536   21.0480   67.3044 C   0  0  0  0  0  0  0  0  0  0  0  0
  -19.2047   22.6207   66.7958 C   0  0  0  0  0  0  0  0  0  0  0  0
  -16.5069   21.1325   71.3613 C   0  0  0  0  0  0  0  0  0  0  0  0
  -17.3511   18.5921   72.6480 C   0  0  0  0  0  0  0  0  0  0  0  0
  -20.7423   19.9949   70.3132 O   0  0  0  0  0  0  0  0  0  0  0  0
  -14.6584   22.8121   67.1381 C   0  0  0  0  0  0  0  0  0  0  0  0
  1  8  1  0
  1 11  1  0
  1 17  1  0
  2  9  1  0
  2 10  1  0
  2 30  1  0
  3 26  1  0
  4 22  1  0
  4 23  1  0
  4 24  1  0
  5 13  2  3
  5 16  1  0
  6 13  1  0
  7 22  1  0
  8 20  1  0
  8 21  1  0
  9 18  1  0
  9 26  1  0
 10 20  1  0
 11 14  2  0
 11 31  1  0
 12 15  1  0
 13 25  1  0
 15 22  1  0
 15 29  1  0
 16 24  1  0
 16 28  1  0
 17 27  1  0
 18 27  1  0
 19 21  1  0
 19 28  1  0
 20 28  1  0
 24 29  1  0
M  END
>  <ID>  (1) 
conformer_0

$$$$
