
     RDKit          3D

 30 32  0  0  0  0  0  0  0  0999 V2000
  -15.6108   20.5400   68.4115 C   0  0  0  0  0  0  0  0  0  0  0  0
  -17.6996   19.2932   74.2855 C   0  0  0  0  0  0  0  0  0  0  0  0
  -17.2950   22.3480   68.9415 C   0  0  0  0  0  0  0  0  0  0  0  0
  -16.9758   21.8678   71.2991 N   0  0  0  0  0  0  0  0  0  0  0  0
  -15.1047   22.5348   69.9277 C   0  0  0  0  0  0  0  0  0  0  0  0
  -15.2101   22.6148   72.5785 O   0  0  0  0  0  0  0  0  0  0  0  0
  -17.1791   21.2680   72.6555 C   0  0  0  0  0  0  0  0  0  0  0  0
  -16.7373   19.9634   75.3235 C   0  0  0  0  0  0  0  0  0  0  0  0
  -15.7210   22.3868   71.2005 C   0  0  0  0  0  0  0  0  0  0  0  0
  -15.8087   23.0264   66.2076 C   0  0  0  0  0  0  0  0  0  0  0  0
  -13.8233   22.8929   69.8802 O   0  0  0  0  0  0  0  0  0  0  0  0
  -16.1415   21.8333   73.6178 C   0  0  0  0  0  0  0  0  0  0  0  0
  -22.0783   20.2022   69.6903 C   0  0  0  0  0  0  0  0  0  0  0  0
  -16.8626   17.1077   74.8592 O   0  0  0  0  0  0  0  0  0  0  0  0
  -20.1838   19.2243   68.4205 C   0  0  0  0  0  0  0  0  0  0  0  0
  -15.8739   22.1298   68.7291 N   0  0  0  0  0  0  0  0  0  0  0  0
  -20.8420   20.4741   68.9135 C   0  0  0  0  0  0  0  0  0  0  0  0
  -13.7722   21.9561   67.1327 C   0  0  0  0  0  0  0  0  0  0  0  0
  -18.2018   22.7727   67.9642 C   0  0  0  0  0  0  0  0  0  0  0  0
  -19.5335   22.3652   68.0630 C   0  0  0  0  0  0  0  0  0  0  0  0
  -17.8400   21.9812   70.1861 C   0  0  0  0  0  0  0  0  0  0  0  0
  -18.8909   17.2227   73.8962 O   0  0  0  0  0  0  0  0  0  0  0  0
  -15.2224   22.4810   67.4103 C   0  0  0  0  0  0  0  0  0  0  0  0
  -17.3590   18.6691   71.8902 C   0  0  0  0  0  0  0  0  0  0  0  0
  -19.8678   21.5303   69.1374 C   0  0  0  0  0  0  0  0  0  0  0  0
  -15.4435   19.3729   75.4312 O   0  0  0  0  0  0  0  0  0  0  0  0
  -17.8200   17.7550   74.3807 C   0  0  0  0  0  0  0  0  0  0  0  0
  -16.7041   21.4471   75.0316 C   0  0  0  0  0  0  0  0  0  0  0  0
  -17.3355   19.8305   72.9123 C   0  0  0  0  0  0  0  0  0  0  0  0
  -19.1397   21.6329   70.2671 N   0  0  0  0  0  0  0  0  0  0  0  0
  1 16  1  0
  2  8  1  0
  2 27  1  0
  2 29  1  0
  3 16  1  0
  3 19  1  0
  3 21  1  0
  4  7  1  0
  4  9  1  0
  4 21  1  0
  5  9  2  3
  5 11  1  0
  6  9  1  0
  6 12  1  0
  7 12  1  0
  7 29  1  0
  8 26  1  0
  8 28  1  0
 10 23  1  0
 12 28  1  0
 13 17  1  0
 14 27  2  0
 15 17  1  0
 16 23  1  0
 17 25  1  0
 18 23  1  0
 19 20  2  0
 20 25  1  0
 21 30  2  0
 22 27  1  0
 24 29  1  0
 25 30  1  0
M  END
>  <ID>  (1) 
conformer_0

$$$$
