
     RDKit          3D

 29 30  0  0  0  0  0  0  0  0999 V2000
  -17.9176   19.0650   74.3968 C   0  0  0  0  0  0  0  0  0  0  0  0
  -13.5945   22.5174   67.6331 C   0  0  0  0  0  0  0  0  0  0  0  0
  -15.5914   20.6555   70.5116 O   0  0  0  0  0  0  0  0  0  0  0  0
  -20.6137   21.6898   69.4337 C   0  0  0  0  0  0  0  0  0  0  0  0
  -16.4224   20.9919   68.0681 C   0  0  0  0  0  0  0  0  0  0  0  0
  -18.7805   22.0004   70.9363 N   0  0  0  0  0  0  0  0  0  0  0  0
  -18.1150   16.7679   73.5153 C   0  0  0  0  0  0  0  0  0  0  0  0
  -18.3644   20.9499   68.8000 C   0  0  0  0  0  0  0  0  0  0  0  0
  -15.7375   19.4681   75.3419 O   0  0  0  0  0  0  0  0  0  0  0  0
  -20.3845   19.8619   67.7737 Cl  0  0  0  0  0  0  0  0  0  0  0  0
  -19.1337   19.3877   73.7702 O   0  0  0  0  0  0  0  0  0  0  0  0
  -17.1170   21.4301   75.4290 C   0  0  0  0  0  0  0  0  0  0  0  0
  -17.2156   18.0293   73.4414 C   0  0  0  0  0  0  0  0  0  0  0  0
  -18.5178   16.6317   74.9175 O   0  0  0  0  0  0  0  0  0  0  0  0
  -19.7926   20.8996   68.6651 C   0  0  0  0  0  0  0  0  0  0  0  0
  -16.8198   20.5838   70.8534 C   0  0  0  0  0  0  0  0  0  0  0  0
  -14.7564   22.5811   73.5714 C   0  0  0  0  0  0  0  0  0  0  0  0
  -20.0450   22.2566   70.5830 C   0  0  0  0  0  0  0  0  0  0  0  0
  -17.1240   19.9894   72.1305 C   0  0  0  0  0  0  0  0  0  0  0  0
  -17.6382   20.6171   67.5041 C   0  0  0  0  0  0  0  0  0  0  0  0
  -17.9886   21.2189   70.1609 C   0  0  0  0  0  0  0  0  0  0  0  0
  -16.7792   20.1378   74.6586 C   0  0  0  0  0  0  0  0  0  0  0  0
  -14.9332   22.6750   66.9538 C   0  0  0  0  0  0  0  0  0  0  0  0
  -12.5393   21.7895   66.7578 C   0  0  0  0  0  0  0  0  0  0  0  0
  -16.1049   22.4553   67.8389 C   0  0  0  0  0  0  0  0  0  0  0  0
  -17.3450   18.6188   72.1067 O   0  0  0  0  0  0  0  0  0  0  0  0
  -15.1928   21.3143   73.0225 C   0  0  0  0  0  0  0  0  0  0  0  0
  -13.1719   22.5385   73.5146 N   0  0  0  0  0  0  0  0  0  0  0  0
  -16.3465   20.4739   73.2582 C   0  0  0  0  0  0  0  0  0  0  0  0
  1 11  1  0
  1 13  1  0
  1 22  1  0
  2 23  1  0
  2 24  1  0
  3 16  2  0
  4 15  1  0
  4 18  1  0
  5 20  1  0
  5 25  1  0
  6 18  2  0
  6 21  1  0
  7 13  1  0
  7 14  1  0
  8 15  1  0
  8 20  1  0
  8 21  1  0
  9 22  1  0
 10 15  1  0
 12 22  1  0
 13 26  1  0
 16 19  1  0
 16 21  1  0
 17 27  1  0
 17 28  1  0
 19 26  1  0
 19 29  1  0
 22 29  1  0
 23 25  1  0
 27 29  1  0
M  END
>  <ID>  (1) 
conformer_0

$$$$
