
     RDKit          3D

 34 37  0  0  0  0  0  0  0  0999 V2000
  -14.1614   23.1011   69.7915 C   0  0  0  0  0  0  0  0  0  0  0  0
  -16.0053   21.4250   73.3225 C   0  0  0  0  0  0  0  0  0  0  0  0
  -12.9708   22.7410   71.9361 N   0  0  0  0  0  0  0  0  0  0  0  0
  -14.5804   21.6891   73.9334 C   0  0  0  0  0  0  0  0  0  0  0  0
  -18.0748   20.2777   73.8699 O   0  0  0  0  0  0  0  0  0  0  0  0
  -16.6616   22.8845   66.5617 C   0  0  0  0  0  0  0  0  0  0  0  0
  -16.1630   17.8587   73.7683 O   0  0  0  0  0  0  0  0  0  0  0  0
  -17.0648   21.6080   67.3127 C   0  0  0  0  0  0  0  0  0  0  0  0
  -18.6550   19.5931   69.2869 C   0  0  0  0  0  0  0  0  0  0  0  0
  -17.7892   19.3348   72.8396 C   0  0  0  0  0  0  0  0  0  0  0  0
  -16.6763   20.3878   74.2699 C   0  0  0  0  0  0  0  0  0  0  0  0
  -20.1611   23.4144   68.2042 C   0  0  0  0  0  0  0  0  0  0  0  0
  -18.4341   21.7896   67.9979 C   0  0  0  0  0  0  0  0  0  0  0  0
  -16.4156   20.5105   75.5784 O   0  0  0  0  0  0  0  0  0  0  0  0
  -15.3039   22.8741   66.2219 O   0  0  0  0  0  0  0  0  0  0  0  0
  -19.0544   20.9781   68.9813 C   0  0  0  0  0  0  0  0  0  0  0  0
  -16.3123   19.4985   69.9561 O   0  0  0  0  0  0  0  0  0  0  0  0
  -13.8329   21.6762   72.5265 C   0  0  0  0  0  0  0  0  0  0  0  0
  -16.9366   22.5437   73.3791 O   0  0  0  0  0  0  0  0  0  0  0  0
  -17.0557   24.2732   66.5857 O   0  0  0  0  0  0  0  0  0  0  0  0
  -15.2269   22.8960   70.8959 C   0  0  0  0  0  0  0  0  0  0  0  0
  -19.0575   22.9284   67.6249 N   0  0  0  0  0  0  0  0  0  0  0  0
  -17.5633   19.4163   70.2210 C   0  0  0  0  0  0  0  0  0  0  0  0
  -14.3395   22.9514   67.3136 C   0  0  0  0  0  0  0  0  0  0  0  0
  -20.7663   22.7361   69.2518 C   0  0  0  0  0  0  0  0  0  0  0  0
  -15.2635   21.6353   71.8343 C   0  0  0  0  0  0  0  0  0  0  0  0
  -18.2393   16.6141   75.3333 N   0  0  0  0  0  0  0  0  0  0  0  0
  -17.9051   18.9656   71.4542 N   0  0  0  0  0  0  0  0  0  0  0  0
  -12.9048   23.4531   70.6436 C   0  0  0  0  0  0  0  0  0  0  0  0
  -17.3897   18.0837   73.6087 C   0  0  0  0  0  0  0  0  0  0  0  0
  -18.5841   17.7362   74.4968 C   0  0  0  0  0  0  0  0  0  0  0  0
  -20.1710   21.5217   69.6572 C   0  0  0  0  0  0  0  0  0  0  0  0
  -15.0958   23.0215   68.5630 O   0  0  0  0  0  0  0  0  0  0  0  0
  -19.5736   17.2481   73.5871 O   0  0  0  0  0  0  0  0  0  0  0  0
  1 21  1  0
  1 29  1  0
  1 33  1  0
  2  4  1  0
  2 11  1  0
  2 19  1  0
  2 26  1  0
  3 18  1  0
  3 29  1  0
  4 18  1  0
  5 10  1  0
  5 11  1  0
  6  8  1  0
  6 15  1  0
  6 20  2  0
  7 30  2  0
  8 13  1  0
  9 16  1  0
  9 23  1  0
 10 28  1  0
 10 30  1  0
 11 14  1  0
 12 22  2  0
 12 25  1  0
 13 16  1  0
 13 22  1  0
 15 24  1  0
 16 32  1  0
 17 23  2  0
 18 26  1  0
 21 26  1  0
 23 28  1  0
 24 33  1  0
 25 32  2  0
 27 31  1  0
 30 31  1  0
 31 34  1  0
M  END
>  <ID>  (1) 
conformer_0

$$$$
