
     RDKit          3D

 31 34  0  0  0  0  0  0  0  0999 V2000
  -12.2113   22.3213   66.4442 C   0  0  0  0  0  0  0  0  0  0  0  0
  -16.9046   20.9688   69.0365 C   0  0  0  0  0  0  0  0  0  0  0  0
  -15.1785   22.2746   73.7219 C   0  0  0  0  0  0  0  0  0  0  0  0
  -16.7595   20.7095   72.9282 N   0  0  0  0  0  0  0  0  0  0  0  0
  -14.6519   23.3323   66.9950 O   0  0  0  0  0  0  0  0  0  0  0  0
  -18.5743   22.6769   68.5902 C   0  0  0  0  0  0  0  0  0  0  0  0
  -16.2093   17.6802   75.0936 O   0  0  0  0  0  0  0  0  0  0  0  0
  -19.3570   20.3606   69.2044 C   0  0  0  0  0  0  0  0  0  0  0  0
  -16.1754   20.0057   75.1203 C   0  0  0  0  0  0  0  0  0  0  0  0
  -15.0784   21.9810   67.3650 C   0  0  0  0  0  0  0  0  0  0  0  0
  -21.7397   19.9574   69.8330 C   0  0  0  0  0  0  0  0  0  0  0  0
  -17.3960   21.2036   70.4881 C   0  0  0  0  0  0  0  0  0  0  0  0
  -17.1662   23.2560   68.2558 C   0  0  0  0  0  0  0  0  0  0  0  0
  -15.7600   20.9058   74.0669 C   0  0  0  0  0  0  0  0  0  0  0  0
  -15.7990   19.9602   69.1724 O   0  0  0  0  0  0  0  0  0  0  0  0
  -16.4274   20.5030   76.3014 O   0  0  0  0  0  0  0  0  0  0  0  0
  -15.1120   22.2975   71.9617 S   0  0  0  0  0  0  0  0  0  0  0  0
  -16.2739   22.0433   68.1774 C   0  0  0  0  0  0  0  0  0  0  0  0
  -12.9640   24.6396   65.8825 C   0  0  0  0  0  0  0  0  0  0  0  0
  -17.5033   18.5599   72.1275 O   0  0  0  0  0  0  0  0  0  0  0  0
  -17.4402   19.4956   73.1262 C   0  0  0  0  0  0  0  0  0  0  0  0
  -18.7796   20.4489   70.5921 C   0  0  0  0  0  0  0  0  0  0  0  0
  -18.4359   21.1633   68.3328 C   0  0  0  0  0  0  0  0  0  0  0  0
  -21.0890   20.5017   67.5875 O   0  0  0  0  0  0  0  0  0  0  0  0
  -18.3118   20.6022   66.9610 C   0  0  0  0  0  0  0  0  0  0  0  0
  -20.7689   20.2367   68.8115 C   0  0  0  0  0  0  0  0  0  0  0  0
  -19.6108   18.2034   73.5970 N   0  0  0  0  0  0  0  0  0  0  0  0
  -13.3447   23.3479   66.3491 C   0  0  0  0  0  0  0  0  0  0  0  0
  -17.1829   18.8473   74.5754 C   0  0  0  0  0  0  0  0  0  0  0  0
  -16.3126   21.1758   71.6330 C   0  0  0  0  0  0  0  0  0  0  0  0
  -18.4638   17.7794   74.4839 C   0  0  0  0  0  0  0  0  0  0  0  0
  1 28  1  0
  2 12  1  0
  2 15  1  0
  2 18  1  0
  2 23  1  0
  3 14  1  0
  3 17  1  0
  4 14  1  0
  4 21  1  0
  4 30  1  0
  5 10  1  0
  5 28  1  0
  6 13  1  0
  6 23  1  0
  7 29  1  0
  8 22  1  0
  8 23  1  0
  8 26  1  0
  9 14  1  0
  9 16  1  0
  9 29  1  0
 10 18  1  0
 11 26  1  0
 12 22  1  0
 12 30  1  0
 13 18  1  0
 17 30  1  0
 19 28  1  0
 20 21  2  0
 21 29  1  0
 23 25  1  0
 24 26  1  0
 27 31  1  0
 29 31  1  0
M  END
>  <ID>  (1) 
conformer_0

$$$$
