
     RDKit          3D

 27 28  0  0  0  0  0  0  0  0999 V2000
  -16.9936   20.4746   71.6045 C   0  0  0  0  0  0  0  0  0  0  0  0
  -15.7254   21.0852   73.9753 C   0  0  0  0  0  0  0  0  0  0  0  0
  -18.4993   21.6138   69.6003 C   0  0  0  0  0  0  0  0  0  0  0  0
  -15.9009   22.1742   68.5381 C   0  0  0  0  0  0  0  0  0  0  0  0
  -16.1268   21.5051   69.7831 C   0  0  0  0  0  0  0  0  0  0  0  0
  -14.4749   23.1637   66.8803 O   0  0  0  0  0  0  0  0  0  0  0  0
  -19.9863   20.1108   70.7057 O   0  0  0  0  0  0  0  0  0  0  0  0
  -14.4544   21.2859   73.6288 O   0  0  0  0  0  0  0  0  0  0  0  0
  -15.5249   20.9605   71.3295 O   0  0  0  0  0  0  0  0  0  0  0  0
  -17.4682   19.2754   72.2032 O   0  0  0  0  0  0  0  0  0  0  0  0
  -15.7070   19.1001   75.4495 O   0  0  0  0  0  0  0  0  0  0  0  0
  -20.7172   22.8438   68.4180 C   0  0  0  0  0  0  0  0  0  0  0  0
  -17.0401   18.6569   73.4449 C   0  0  0  0  0  0  0  0  0  0  0  0
  -17.0318   22.8865   68.0780 C   0  0  0  0  0  0  0  0  0  0  0  0
  -14.0949   21.0830   67.5202 O   0  0  0  0  0  0  0  0  0  0  0  0
  -17.8478   16.9631   75.0005 N   0  0  0  0  0  0  0  0  0  0  0  0
  -19.2637   24.2808   67.2632 F   0  0  0  0  0  0  0  0  0  0  0  0
  -19.2483   17.7404   73.4299 O   0  0  0  0  0  0  0  0  0  0  0  0
  -18.3007   22.5957   68.6021 C   0  0  0  0  0  0  0  0  0  0  0  0
  -20.9115   21.7534   69.3066 C   0  0  0  0  0  0  0  0  0  0  0  0
  -19.4291   23.2587   68.1036 C   0  0  0  0  0  0  0  0  0  0  0  0
  -18.1031   17.7409   73.9540 C   0  0  0  0  0  0  0  0  0  0  0  0
  -19.8119   21.1587   69.8841 C   0  0  0  0  0  0  0  0  0  0  0  0
  -14.7307   22.1663   67.6511 C   0  0  0  0  0  0  0  0  0  0  0  0
  -16.3298   19.7363   74.3538 C   0  0  0  0  0  0  0  0  0  0  0  0
  -16.5295   22.2089   74.1025 O   0  0  0  0  0  0  0  0  0  0  0  0
  -17.3412   21.1535   70.2533 C   0  0  0  0  0  0  0  0  0  0  0  0
  1  9  2  0
  1 10  1  0
  1 27  1  0
  2  8  2  0
  2 25  1  0
  2 26  1  0
  3 19  1  0
  3 23  1  0
  3 27  1  0
  4  5  1  0
  4 14  1  0
  4 24  1  0
  5 27  2  0
  6 24  2  0
  7 23  1  0
 10 13  1  0
 11 25  1  0
 12 20  1  0
 12 21  2  0
 13 22  1  0
 13 25  1  0
 14 19  2  0
 15 24  1  0
 16 22  1  0
 17 21  1  0
 18 22  2  0
 19 21  1  0
 20 23  2  0
M  END
>  <ID>  (1) 
conformer_0

$$$$
