
     RDKit          3D

 38 43  0  0  0  0  0  0  0  0999 V2000
  -15.5868   20.8210   68.5903 C   0  0  0  0  0  0  0  0  0  0  0  0
  -16.6392   19.6234   72.0165 C   0  0  0  0  0  0  0  0  0  0  0  0
  -15.5242   21.3400   74.3642 C   0  0  0  0  0  0  0  0  0  0  0  0
  -17.1349   18.4281   71.1508 C   0  0  0  0  0  0  0  0  0  0  0  0
  -13.7918   24.2234   73.4187 C   0  0  0  0  0  0  0  0  0  0  0  0
  -21.1496   22.6106   69.1114 C   0  0  0  0  0  0  0  0  0  0  0  0
  -18.0842   20.4294   68.4844 C   0  0  0  0  0  0  0  0  0  0  0  0
  -14.9700   21.6146   71.7451 C   0  0  0  0  0  0  0  0  0  0  0  0
  -20.6154   20.1071   69.6485 C   0  0  0  0  0  0  0  0  0  0  0  0
  -14.4784   22.5208   70.5875 C   0  0  0  0  0  0  0  0  0  0  0  0
  -15.5005   20.1582   69.8643 O   0  0  0  0  0  0  0  0  0  0  0  0
  -17.0446   22.1102   67.0285 C   0  0  0  0  0  0  0  0  0  0  0  0
  -12.8122   23.6332   69.5828 C   0  0  0  0  0  0  0  0  0  0  0  0
  -18.2880   17.8498   74.6704 C   0  0  0  0  0  0  0  0  0  0  0  0
  -16.1117   16.8534   74.9756 O   0  0  0  0  0  0  0  0  0  0  0  0
  -15.1829   22.0995   73.1241 C   0  0  0  0  0  0  0  0  0  0  0  0
  -14.1777   22.9514   69.0693 C   0  0  0  0  0  0  0  0  0  0  0  0
  -16.8244   20.7231   67.6805 C   0  0  0  0  0  0  0  0  0  0  0  0
  -18.7914   16.6356   74.0853 O   0  0  0  0  0  0  0  0  0  0  0  0
  -16.2356   20.0476   74.3667 C   0  0  0  0  0  0  0  0  0  0  0  0
  -18.0690   22.8040   67.9206 C   0  0  0  0  0  0  0  0  0  0  0  0
  -13.3553   24.5275   71.9307 C   0  0  0  0  0  0  0  0  0  0  0  0
  -17.2443   19.7204   73.3612 C   0  0  0  0  0  0  0  0  0  0  0  0
  -19.5407   21.8460   71.0874 C   0  0  0  0  0  0  0  0  0  0  0  0
  -16.1472   19.1728   75.4879 C   0  0  0  0  0  0  0  0  0  0  0  0
  -12.2910   22.4106   71.6753 O   0  0  0  0  0  0  0  0  0  0  0  0
  -18.9054   21.7204   68.6472 C   0  0  0  0  0  0  0  0  0  0  0  0
  -20.0364   21.5858   69.6280 C   0  0  0  0  0  0  0  0  0  0  0  0
  -19.5437   18.7433   72.7435 N   0  0  0  0  0  0  0  0  0  0  0  0
  -14.5809   21.8068   68.1219 C   0  0  0  0  0  0  0  0  0  0  0  0
  -16.9533   17.9240   75.4164 C   0  0  0  0  0  0  0  0  0  0  0  0
  -15.1040   23.5213   73.2922 O   0  0  0  0  0  0  0  0  0  0  0  0
  -20.8520   23.1982   67.8453 O   0  0  0  0  0  0  0  0  0  0  0  0
  -15.4103   20.2518   71.4289 C   0  0  0  0  0  0  0  0  0  0  0  0
  -15.9386   19.8096   76.6217 O   0  0  0  0  0  0  0  0  0  0  0  0
  -18.4826   19.0198   73.6937 C   0  0  0  0  0  0  0  0  0  0  0  0
  -13.2173   23.2771   71.1044 C   0  0  0  0  0  0  0  0  0  0  0  0
  -16.2514   22.4639   66.1007 O   0  0  0  0  0  0  0  0  0  0  0  0
  1 11  1  0
  1 18  1  0
  1 30  1  0
  2  4  1  0
  2 23  1  0
  2 34  1  0
  3 16  1  0
  3 20  1  0
  5 22  1  0
  5 32  1  0
  6 28  1  0
  6 33  1  0
  7 18  1  0
  7 27  1  0
  8 10  1  0
  8 16  2  0
  8 34  1  0
  9 28  1  0
 10 17  1  0
 10 37  1  0
 11 34  1  0
 12 18  1  0
 12 21  1  0
 12 38  2  0
 13 17  1  0
 13 37  1  0
 14 19  1  0
 14 31  1  0
 14 36  1  0
 15 31  1  0
 16 32  1  0
 17 30  1  0
 20 23  1  0
 20 25  1  0
 21 27  1  0
 22 37  1  0
 23 36  1  0
 24 28  1  0
 25 31  1  0
 25 35  1  0
 26 37  1  0
 27 28  1  0
 29 36  1  0
M  END
>  <ID>  (1) 
conformer_0

$$$$
