
     RDKit          3D

 36 41  0  0  0  0  0  0  0  0999 V2000
  -16.8994   22.4770   68.0842 C   0  0  0  0  0  0  0  0  0  0  0  0
  -18.9378   23.5597   67.4736 C   0  0  0  0  0  0  0  0  0  0  0  0
  -16.5162   21.0358   74.4962 C   0  0  0  0  0  0  0  0  0  0  0  0
  -18.0289   20.6234   69.7740 C   0  0  0  0  0  0  0  0  0  0  0  0
  -20.2972   23.7770   67.3492 O   0  0  0  0  0  0  0  0  0  0  0  0
  -16.6648   20.5515   69.5615 N   0  0  0  0  0  0  0  0  0  0  0  0
  -14.9764   21.1989   71.2441 C   0  0  0  0  0  0  0  0  0  0  0  0
  -18.8772   21.4515   68.9132 O   0  0  0  0  0  0  0  0  0  0  0  0
  -12.6871   24.3877   71.1356 F   0  0  0  0  0  0  0  0  0  0  0  0
  -16.3594   19.9169   75.5213 O   0  0  0  0  0  0  0  0  0  0  0  0
  -17.1773   18.6932   75.1404 C   0  0  0  0  0  0  0  0  0  0  0  0
  -21.3859   22.9923   66.9401 C   0  0  0  0  0  0  0  0  0  0  0  0
  -18.9387   17.9063   73.5669 N   0  0  0  0  0  0  0  0  0  0  0  0
  -21.0883   20.7705   67.7973 C   0  0  0  0  0  0  0  0  0  0  0  0
  -18.2264   24.5496   66.8588 C   0  0  0  0  0  0  0  0  0  0  0  0
  -17.0578   19.3543   72.8650 C   0  0  0  0  0  0  0  0  0  0  0  0
  -18.6038   16.7990   74.5209 O   0  0  0  0  0  0  0  0  0  0  0  0
  -19.8806   20.4671   68.5072 C   0  0  0  0  0  0  0  0  0  0  0  0
  -21.7990   22.0911   68.0922 C   0  0  0  0  0  0  0  0  0  0  0  0
  -14.8838   21.0000   72.6641 C   0  0  0  0  0  0  0  0  0  0  0  0
  -15.4478   20.4450   67.5524 C   0  0  0  0  0  0  0  0  0  0  0  0
  -14.4337   22.5107   70.9510 C   0  0  0  0  0  0  0  0  0  0  0  0
  -16.8593   24.5495   66.9532 C   0  0  0  0  0  0  0  0  0  0  0  0
  -16.1103   21.3507   68.5345 C   0  0  0  0  0  0  0  0  0  0  0  0
  -14.2674   23.1730   72.2322 N   0  0  0  0  0  0  0  0  0  0  0  0
  -21.8491   23.0447   69.3097 C   0  0  0  0  0  0  0  0  0  0  0  0
  -18.6130   19.8862   70.5981 O   0  0  0  0  0  0  0  0  0  0  0  0
  -16.1692   23.5167   67.5513 C   0  0  0  0  0  0  0  0  0  0  0  0
  -15.6205   20.0697   70.4767 C   0  0  0  0  0  0  0  0  0  0  0  0
  -12.9441   23.8221   72.4592 C   0  0  0  0  0  0  0  0  0  0  0  0
  -17.3117   17.1649   75.1008 C   0  0  0  0  0  0  0  0  0  0  0  0
  -18.0653   19.1003   73.9405 C   0  0  0  0  0  0  0  0  0  0  0  0
  -18.2502   22.4896   68.1588 C   0  0  0  0  0  0  0  0  0  0  0  0
  -14.7060   22.3414   73.3230 C   0  0  0  0  0  0  0  0  0  0  0  0
  -16.0881   22.5153   74.0172 C   0  0  0  0  0  0  0  0  0  0  0  0
  -15.9910   20.2669   73.3139 C   0  0  0  0  0  0  0  0  0  0  0  0
  1 24  1  0
  1 28  1  0
  1 33  2  0
  2  5  1  0
  2 15  2  0
  2 33  1  0
  3 10  1  0
  3 35  1  0
  3 36  1  0
  4  6  1  0
  4 27  2  0
  5 12  1  0
  6 24  1  0
  6 29  1  0
  7 20  1  0
  7 22  1  0
  7 29  1  0
  8 18  1  0
  8 33  1  0
  9 30  1  0
 10 11  1  0
 11 31  1  0
 11 32  1  0
 12 19  1  0
 13 17  1  0
 13 32  1  0
 14 18  1  0
 14 19  1  0
 15 23  1  0
 16 32  1  0
 16 36  1  0
 17 31  1  0
 19 26  1  0
 20 34  1  0
 20 36  1  0
 21 24  1  0
 22 25  1  0
 23 28  2  0
 25 30  1  0
 25 34  1  0
 34 35  1  0
M  END
>  <ID>  (1) 
conformer_0

$$$$
