
     RDKit          3D

 26 27  0  0  0  0  0  0  0  0999 V2000
  -17.6814   21.9004   75.4683 C   0  0  0  0  0  0  0  0  0  0  0  0
  -18.4082   21.1494   67.8487 C   0  0  0  0  0  0  0  0  0  0  0  0
  -19.9803   21.3525   69.7785 C   0  0  0  0  0  0  0  0  0  0  0  0
  -16.1056   20.4165   68.0950 C   0  0  0  0  0  0  0  0  0  0  0  0
  -16.5744   20.8264   73.5626 N   0  0  0  0  0  0  0  0  0  0  0  0
  -13.0382   21.7448   72.5286 C   0  0  0  0  0  0  0  0  0  0  0  0
  -17.9757   18.7157   71.4189 O   0  0  0  0  0  0  0  0  0  0  0  0
  -16.3935   22.0535   72.6622 C   0  0  0  0  0  0  0  0  0  0  0  0
  -17.1856   20.8064   67.2997 C   0  0  0  0  0  0  0  0  0  0  0  0
  -16.2343   17.6591   74.9426 O   0  0  0  0  0  0  0  0  0  0  0  0
  -17.5890   20.5697   70.0183 C   0  0  0  0  0  0  0  0  0  0  0  0
  -17.0497   20.8074   66.0041 O   0  0  0  0  0  0  0  0  0  0  0  0
  -20.5937   22.6333   69.5060 C   0  0  0  0  0  0  0  0  0  0  0  0
  -20.7770   20.1878   70.3795 C   0  0  0  0  0  0  0  0  0  0  0  0
  -13.9871   22.8365   72.1569 C   0  0  0  0  0  0  0  0  0  0  0  0
  -18.6581   21.0218   69.2109 C   0  0  0  0  0  0  0  0  0  0  0  0
  -17.9417   20.2452   71.5622 C   0  0  0  0  0  0  0  0  0  0  0  0
  -14.1841   23.6940   73.4343 C   0  0  0  0  0  0  0  0  0  0  0  0
  -16.3608   21.1478   74.9635 C   0  0  0  0  0  0  0  0  0  0  0  0
  -16.3543   20.2870   69.4702 C   0  0  0  0  0  0  0  0  0  0  0  0
  -18.1441   18.9881   74.1925 C   0  0  0  0  0  0  0  0  0  0  0  0
  -18.9367   17.8799   73.6925 O   0  0  0  0  0  0  0  0  0  0  0  0
  -15.2551   22.1936   71.6275 C   0  0  0  0  0  0  0  0  0  0  0  0
  -17.9417   20.2501   73.2341 C   0  0  0  0  0  0  0  0  0  0  0  0
  -16.2071   19.8948   75.6563 O   0  0  0  0  0  0  0  0  0  0  0  0
  -16.8772   18.7984   75.0718 C   0  0  0  0  0  0  0  0  0  0  0  0
  1 19  1  0
  2  9  2  0
  2 16  1  0
  3 13  1  0
  3 14  1  0
  3 16  1  0
  4  9  1  0
  4 20  1  0
  5  8  1  0
  5 19  1  0
  5 24  1  0
  6 15  1  0
  7 17  1  0
  8 23  1  0
  9 12  1  0
 10 26  2  0
 11 16  1  0
 11 17  1  0
 11 20  2  0
 15 18  1  0
 15 23  1  0
 17 24  1  0
 19 25  1  0
 21 22  1  0
 21 24  1  0
 21 26  1  0
 25 26  1  0
M  END
>  <ID>  (1) 
conformer_0

$$$$
