
     RDKit          3D

 27 30  0  0  0  0  0  0  0  0999 V2000
  -15.4960   20.5052   73.8539 C   0  0  0  0  0  0  0  0  0  0  0  0
  -15.0929   22.7069   71.2417 N   0  0  0  0  0  0  0  0  0  0  0  0
  -19.0517   16.6844   73.8307 O   0  0  0  0  0  0  0  0  0  0  0  0
  -20.0798   22.0495   68.8497 C   0  0  0  0  0  0  0  0  0  0  0  0
  -15.1959   20.3868   70.5975 O   0  0  0  0  0  0  0  0  0  0  0  0
  -16.8987   20.9855   73.0008 O   0  0  0  0  0  0  0  0  0  0  0  0
  -19.3777   21.9247   70.0674 C   0  0  0  0  0  0  0  0  0  0  0  0
  -14.4144   21.4985   73.3216 C   0  0  0  0  0  0  0  0  0  0  0  0
  -18.1870   21.1326   67.6441 C   0  0  0  0  0  0  0  0  0  0  0  0
  -17.5737   20.7323   66.5290 O   0  0  0  0  0  0  0  0  0  0  0  0
  -16.3650   20.7189   76.0602 O   0  0  0  0  0  0  0  0  0  0  0  0
  -13.9654   23.3945   70.5711 C   0  0  0  0  0  0  0  0  0  0  0  0
  -17.9307   17.6468   73.6671 C   0  0  0  0  0  0  0  0  0  0  0  0
  -19.4798   21.6654   67.6365 C   0  0  0  0  0  0  0  0  0  0  0  0
  -15.7837   21.4429   70.9267 C   0  0  0  0  0  0  0  0  0  0  0  0
  -16.9806   17.3603   74.8670 C   0  0  0  0  0  0  0  0  0  0  0  0
  -17.5280   20.9946   68.8460 C   0  0  0  0  0  0  0  0  0  0  0  0
  -16.1027   18.5396   75.1401 O   0  0  0  0  0  0  0  0  0  0  0  0
  -16.3161   19.8731   74.9672 C   0  0  0  0  0  0  0  0  0  0  0  0
  -17.6564   20.2191   74.0813 C   0  0  0  0  0  0  0  0  0  0  0  0
  -14.8760   22.8470   72.7278 C   0  0  0  0  0  0  0  0  0  0  0  0
  -19.5599   19.3146   72.8367 O   0  0  0  0  0  0  0  0  0  0  0  0
  -18.0825   21.4025   70.0835 C   0  0  0  0  0  0  0  0  0  0  0  0
  -13.3305   24.2474   71.5641 O   0  0  0  0  0  0  0  0  0  0  0  0
  -17.2552   21.3136   71.4624 C   0  0  0  0  0  0  0  0  0  0  0  0
  -18.5860   19.0334   73.8566 C   0  0  0  0  0  0  0  0  0  0  0  0
  -13.7360   23.8416   72.9085 C   0  0  0  0  0  0  0  0  0  0  0  0
  1  8  1  0
  1 19  1  0
  2 12  1  0
  2 15  1  0
  2 21  1  0
  3 13  1  0
  4  7  2  0
  4 14  1  0
  5 15  2  0
  6 20  1  0
  6 25  1  0
  7 23  1  0
  8 21  1  0
  9 10  1  0
  9 14  2  0
  9 17  1  0
 11 19  1  0
 12 24  1  0
 13 16  1  0
 13 26  1  0
 15 25  1  0
 16 18  1  0
 17 23  2  0
 18 19  1  0
 19 20  1  0
 20 26  1  0
 21 27  1  0
 22 26  1  0
 23 25  1  0
 24 27  1  0
M  END
>  <ID>  (1) 
conformer_0

$$$$
