
     RDKit          3D

 33 35  0  0  0  0  0  0  0  0999 V2000
  -19.3151   19.0525   73.9655 N   0  0  0  0  0  0  0  0  0  0  0  0
  -17.8635   23.4853   67.5534 C   0  0  0  0  0  0  0  0  0  0  0  0
  -14.0608   23.2319   72.7117 C   0  0  0  0  0  0  0  0  0  0  0  0
  -20.3644   22.0475   70.1225 C   0  0  0  0  0  0  0  0  0  0  0  0
  -16.9142   20.7199   67.0368 C   0  0  0  0  0  0  0  0  0  0  0  0
  -13.5111   22.9816   67.8815 C   0  0  0  0  0  0  0  0  0  0  0  0
  -16.9510   21.1399   74.1286 C   0  0  0  0  0  0  0  0  0  0  0  0
  -17.8771   21.1111   70.0831 C   0  0  0  0  0  0  0  0  0  0  0  0
  -18.3568   21.3826   68.7208 C   0  0  0  0  0  0  0  0  0  0  0  0
  -14.7248   22.3222   67.3933 O   0  0  0  0  0  0  0  0  0  0  0  0
  -11.7876   21.7907   66.4374 C   0  0  0  0  0  0  0  0  0  0  0  0
  -16.1098   21.8722   73.1529 C   0  0  0  0  0  0  0  0  0  0  0  0
  -20.3382   22.5485   67.8295 O   0  0  0  0  0  0  0  0  0  0  0  0
  -17.9932   18.6956   73.5629 C   0  0  0  0  0  0  0  0  0  0  0  0
  -14.8395   22.4387   73.6610 C   0  0  0  0  0  0  0  0  0  0  0  0
  -12.5889   23.1042   72.8295 C   0  0  0  0  0  0  0  0  0  0  0  0
  -16.6663   21.7566   75.3877 O   0  0  0  0  0  0  0  0  0  0  0  0
  -17.2546   22.0448   67.8287 C   0  0  0  0  0  0  0  0  0  0  0  0
  -16.5154   17.5280   74.9931 N   0  0  0  0  0  0  0  0  0  0  0  0
  -16.3003   21.9386   71.7510 C   0  0  0  0  0  0  0  0  0  0  0  0
  -14.3859   23.2263   71.2545 C   0  0  0  0  0  0  0  0  0  0  0  0
  -15.1358   22.0185   70.8684 C   0  0  0  0  0  0  0  0  0  0  0  0
  -15.8288   22.4500   68.3838 C   0  0  0  0  0  0  0  0  0  0  0  0
  -19.8424   21.6190   68.6883 C   0  0  0  0  0  0  0  0  0  0  0  0
  -18.0080   19.9000   70.6005 O   0  0  0  0  0  0  0  0  0  0  0  0
  -18.6193   16.5588   74.5947 O   0  0  0  0  0  0  0  0  0  0  0  0
  -17.6185   17.3092   74.1034 C   0  0  0  0  0  0  0  0  0  0  0  0
  -20.5661   20.2894   68.3669 C   0  0  0  0  0  0  0  0  0  0  0  0
  -16.9345   19.6282   74.0539 C   0  0  0  0  0  0  0  0  0  0  0  0
  -17.5341   22.2554   71.0097 C   0  0  0  0  0  0  0  0  0  0  0  0
  -12.2351   22.8283   67.3907 C   0  0  0  0  0  0  0  0  0  0  0  0
  -15.3559   21.4651   69.4947 C   0  0  0  0  0  0  0  0  0  0  0  0
  -16.2703   18.9469   75.1886 C   0  0  0  0  0  0  0  0  0  0  0  0
  1 14  1  0
  2 18  1  0
  3 15  1  0
  3 16  1  0
  3 21  1  0
  4 24  1  0
  5 18  1  0
  6 10  1  0
  6 31  2  3
  7 12  1  0
  7 17  1  0
  7 29  1  0
  8  9  1  0
  8 25  1  0
  8 30  1  0
  9 18  1  0
  9 24  1  0
 10 23  1  0
 11 31  1  0
 12 15  2  0
 12 20  1  0
 13 24  1  0
 14 27  1  0
 14 29  1  0
 18 23  1  0
 19 27  1  0
 19 33  1  0
 20 22  1  0
 20 30  1  0
 21 22  1  0
 22 32  1  0
 23 32  1  0
 24 28  1  0
 26 27  1  0
 29 33  1  0
M  END
>  <ID>  (1) 
conformer_0

$$$$
