
     RDKit          3D

 34 36  0  0  0  0  0  0  0  0999 V2000
  -15.8997   19.7845   76.1594 O   0  0  0  0  0  0  0  0  0  0  0  0
  -15.4468   19.2201   69.9218 O   0  0  0  0  0  0  0  0  0  0  0  0
  -13.8712   21.6856   71.2586 O   0  0  0  0  0  0  0  0  0  0  0  0
  -20.7713   21.2900   69.7558 C   0  0  0  0  0  0  0  0  0  0  0  0
  -18.0273   20.1594   72.7880 N   0  0  0  0  0  0  0  0  0  0  0  0
  -16.2341   21.3764   71.3024 C   0  0  0  0  0  0  0  0  0  0  0  0
  -18.8967   17.9443   73.8591 C   0  0  0  0  0  0  0  0  0  0  0  0
  -13.9452   23.3077   66.8458 C   0  0  0  0  0  0  0  0  0  0  0  0
  -20.1137   21.8056   68.6249 C   0  0  0  0  0  0  0  0  0  0  0  0
  -17.7927   21.3255   66.3954 C   0  0  0  0  0  0  0  0  0  0  0  0
  -16.8518   25.4182   65.8911 C   0  0  0  0  0  0  0  0  0  0  0  0
  -15.5428   25.0837   65.9947 C   0  0  0  0  0  0  0  0  0  0  0  0
  -15.2660   20.2434   68.0435 O   0  0  0  0  0  0  0  0  0  0  0  0
  -17.8991   24.7241   66.4420 C   0  0  0  0  0  0  0  0  0  0  0  0
  -14.8776   21.2418   73.3891 C   0  0  0  0  0  0  0  0  0  0  0  0
  -17.0431   19.6560   73.7082 C   0  0  0  0  0  0  0  0  0  0  0  0
  -17.9579   21.5692   69.5965 C   0  0  0  0  0  0  0  0  0  0  0  0
  -16.2442   21.0730   75.5614 C   0  0  0  0  0  0  0  0  0  0  0  0
  -14.8745   24.1606   66.4869 C   0  0  0  0  0  0  0  0  0  0  0  0
  -19.9312   20.9869   70.8353 C   0  0  0  0  0  0  0  0  0  0  0  0
  -17.6239   21.1390   71.8574 C   0  0  0  0  0  0  0  0  0  0  0  0
  -18.7432   21.9949   68.5069 C   0  0  0  0  0  0  0  0  0  0  0  0
  -18.0869   18.9415   74.7206 C   0  0  0  0  0  0  0  0  0  0  0  0
  -18.1564   16.6467   73.9131 C   0  0  0  0  0  0  0  0  0  0  0  0
  -16.2324   18.7144   73.1695 O   0  0  0  0  0  0  0  0  0  0  0  0
  -13.6748   21.7831   73.7540 O   0  0  0  0  0  0  0  0  0  0  0  0
  -15.7124   20.2419   69.2171 C   0  0  0  0  0  0  0  0  0  0  0  0
  -16.4457   21.4601   69.7324 C   0  0  0  0  0  0  0  0  0  0  0  0
  -18.6077   21.2408   70.7297 N   0  0  0  0  0  0  0  0  0  0  0  0
  -14.9203   21.0554   71.8602 C   0  0  0  0  0  0  0  0  0  0  0  0
  -21.2416   21.6543   68.7656 N   0  0  0  0  0  0  0  0  0  0  0  0
  -18.0504   23.7046   67.0927 C   0  0  0  0  0  0  0  0  0  0  0  0
  -18.2022   22.4412   67.3502 N   0  0  0  0  0  0  0  0  0  0  0  0
  -16.2366   20.9537   74.0387 C   0  0  0  0  0  0  0  0  0  0  0  0
  1 18  1  0
  2 27  2  0
  3 30  1  0
  4 20  1  0
  4 31  1  0
  5 16  1  0
  5 21  2  0
  6 21  1  0
  6 28  1  0
  6 30  1  0
  7 23  1  0
  7 24  1  0
  8 19  1  0
  9 22  1  0
  9 31  1  0
 10 33  1  0
 11 12  1  0
 11 14  2  3
 12 19  1  0
 13 27  1  0
 14 32  1  0
 15 26  1  0
 15 30  1  0
 15 34  1  0
 16 23  1  0
 16 25  1  0
 16 34  1  0
 17 22  2  0
 17 28  1  0
 17 29  1  0
 18 34  1  0
 20 29  1  0
 21 29  1  0
 22 33  1  0
 27 28  1  0
 32 33  1  0
M  END
>  <ID>  (1) 
conformer_0

$$$$
