
     RDKit          3D

 24 25  0  0  0  0  0  0  0  0999 V2000
  -15.5630   19.9968   75.0114 O   0  0  0  0  0  0  0  0  0  0  0  0
  -18.0118   16.9780   73.1822 O   0  0  0  0  0  0  0  0  0  0  0  0
  -18.3161   21.7597   68.3514 C   0  0  0  0  0  0  0  0  0  0  0  0
  -19.9467   22.9510   66.9628 C   0  0  0  0  0  0  0  0  0  0  0  0
  -18.4856   16.5063   75.3236 N   0  0  0  0  0  0  0  0  0  0  0  0
  -16.0653   21.3214   74.7355 C   0  0  0  0  0  0  0  0  0  0  0  0
  -17.8545   19.7608   73.7136 C   0  0  0  0  0  0  0  0  0  0  0  0
  -18.1570   18.7688   74.7778 C   0  0  0  0  0  0  0  0  0  0  0  0
  -18.8925   21.0790   71.9279 C   0  0  0  0  0  0  0  0  0  0  0  0
  -13.9091   21.5188   73.6315 O   0  0  0  0  0  0  0  0  0  0  0  0
  -15.2536   22.1190   73.6948 C   0  0  0  0  0  0  0  0  0  0  0  0
  -15.9446   20.0838   69.0955 F   0  0  0  0  0  0  0  0  0  0  0  0
  -17.9053   20.1576   72.2480 C   0  0  0  0  0  0  0  0  0  0  0  0
  -18.9642   21.6115   70.6826 C   0  0  0  0  0  0  0  0  0  0  0  0
  -17.8632   22.2433   66.0260 C   0  0  0  0  0  0  0  0  0  0  0  0
  -17.0296   20.3663   70.0018 C   0  0  0  0  0  0  0  0  0  0  0  0
  -17.9998   17.3438   74.4069 C   0  0  0  0  0  0  0  0  0  0  0  0
  -18.0746   21.2373   69.6723 C   0  0  0  0  0  0  0  0  0  0  0  0
  -19.0884   22.8891   65.8472 C   0  0  0  0  0  0  0  0  0  0  0  0
  -19.5404   22.4042   68.1573 C   0  0  0  0  0  0  0  0  0  0  0  0
  -16.9900   19.7751   71.2366 C   0  0  0  0  0  0  0  0  0  0  0  0
  -17.5847   21.1626   74.4463 C   0  0  0  0  0  0  0  0  0  0  0  0
  -17.0523   22.2276   65.0330 F   0  0  0  0  0  0  0  0  0  0  0  0
  -17.4751   21.6856   67.2384 C   0  0  0  0  0  0  0  0  0  0  0  0
  1  6  1  0
  2 17  2  0
  3 18  2  3
  3 20  1  0
  3 24  1  0
  4 19  1  0
  4 20  2  0
  5 17  1  0
  6 11  1  0
  6 22  1  0
  7  8  1  0
  7 13  1  0
  7 22  1  0
  8 17  1  0
  9 13  1  0
  9 14  2  0
 10 11  1  0
 12 16  1  0
 13 21  1  0
 14 18  1  0
 15 19  1  0
 15 23  1  0
 15 24  2  0
 16 18  1  0
 16 21  2  0
M  END
>  <ID>  (1) 
conformer_0

$$$$
