
     RDKit          3D

 31 35  0  0  0  0  0  0  0  0999 V2000
  -18.5067   16.8926   75.0753 O   0  0  0  0  0  0  0  0  0  0  0  0
  -15.6604   22.6369   71.6229 C   0  0  0  0  0  0  0  0  0  0  0  0
  -18.0913   17.8710   74.0494 C   0  0  0  0  0  0  0  0  0  0  0  0
  -15.1764   21.8175   73.8398 C   0  0  0  0  0  0  0  0  0  0  0  0
  -20.7202   21.0036   67.5625 N   0  0  0  0  0  0  0  0  0  0  0  0
  -17.9763   19.6577   72.1284 C   0  0  0  0  0  0  0  0  0  0  0  0
  -15.8684   20.0271   76.0756 O   0  0  0  0  0  0  0  0  0  0  0  0
  -16.4898   22.9911   68.8842 C   0  0  0  0  0  0  0  0  0  0  0  0
  -16.0512   20.7478   73.6878 C   0  0  0  0  0  0  0  0  0  0  0  0
  -17.9463   20.5320   69.5581 C   0  0  0  0  0  0  0  0  0  0  0  0
  -12.9196   23.8531   65.5747 C   0  0  0  0  0  0  0  0  0  0  0  0
  -21.3404   20.2885   68.5746 C   0  0  0  0  0  0  0  0  0  0  0  0
  -14.9689   22.7860   72.7926 C   0  0  0  0  0  0  0  0  0  0  0  0
  -18.7844   19.1458   73.3286 C   0  0  0  0  0  0  0  0  0  0  0  0
  -16.5599   21.5631   71.4453 C   0  0  0  0  0  0  0  0  0  0  0  0
  -18.2939   21.8645   67.5709 O   0  0  0  0  0  0  0  0  0  0  0  0
  -14.3419   23.9483   66.0499 C   0  0  0  0  0  0  0  0  0  0  0  0
  -16.1358   19.7465   74.7914 C   0  0  0  0  0  0  0  0  0  0  0  0
  -16.9229   24.3456   66.9231 N   0  0  0  0  0  0  0  0  0  0  0  0
  -17.2490   21.2924   70.2331 N   0  0  0  0  0  0  0  0  0  0  0  0
  -17.9539   17.0191   72.8742 O   0  0  0  0  0  0  0  0  0  0  0  0
  -16.0568   23.5121   67.5769 C   0  0  0  0  0  0  0  0  0  0  0  0
  -17.3649   21.7629   68.7671 C   0  0  0  0  0  0  0  0  0  0  0  0
  -20.4455   19.9570   69.5413 C   0  0  0  0  0  0  0  0  0  0  0  0
  -16.4207   25.0076   65.8737 C   0  0  0  0  0  0  0  0  0  0  0  0
  -14.7838   23.2374   67.1160 C   0  0  0  0  0  0  0  0  0  0  0  0
  -19.2313   20.4781   69.1153 C   0  0  0  0  0  0  0  0  0  0  0  0
  -19.4005   21.1644   67.9128 C   0  0  0  0  0  0  0  0  0  0  0  0
  -15.1580   24.8312   65.4139 N   0  0  0  0  0  0  0  0  0  0  0  0
  -16.7920   18.4073   74.7018 C   0  0  0  0  0  0  0  0  0  0  0  0
  -16.8179   20.6504   72.4936 C   0  0  0  0  0  0  0  0  0  0  0  0
  1  3  1  0
  2 13  2  0
  2 15  1  0
  3 14  1  0
  3 21  1  0
  3 30  1  0
  4  9  2  0
  4 13  1  0
  5 12  1  0
  5 28  1  0
  6 14  1  0
  6 31  1  0
  7 18  1  0
  8 22  1  0
  8 23  1  0
  9 18  1  0
  9 31  1  0
 10 20  1  0
 10 23  1  0
 10 27  1  0
 11 17  1  0
 12 24  1  0
 15 20  2  3
 15 31  1  0
 16 23  1  0
 16 28  1  0
 17 26  2  0
 17 29  1  0
 18 30  1  0
 19 22  1  0
 19 25  2  0
 22 26  1  0
 24 27  1  0
 25 29  1  0
 27 28  2  0
M  END
>  <ID>  (1) 
conformer_0

$$$$
