
     RDKit          3D

 30 34  0  0  0  0  0  0  0  0999 V2000
  -14.8964   22.5668   73.1364 C   0  0  0  0  0  0  0  0  0  0  0  0
  -15.2981   19.5985   71.3820 O   0  0  0  0  0  0  0  0  0  0  0  0
  -16.9442   21.4768   68.7848 C   0  0  0  0  0  0  0  0  0  0  0  0
  -15.2792   23.0356   66.8746 C   0  0  0  0  0  0  0  0  0  0  0  0
  -17.6045   17.2646   74.1691 C   0  0  0  0  0  0  0  0  0  0  0  0
  -18.6083   21.3755   67.0714 C   0  0  0  0  0  0  0  0  0  0  0  0
  -20.8996   20.4251   67.8508 C   0  0  0  0  0  0  0  0  0  0  0  0
  -17.4622   20.2784   70.7832 O   0  0  0  0  0  0  0  0  0  0  0  0
  -18.6186   16.3605   74.1165 O   0  0  0  0  0  0  0  0  0  0  0  0
  -17.7914   20.7616   69.5942 C   0  0  0  0  0  0  0  0  0  0  0  0
  -18.0889   19.4774   73.0043 C   0  0  0  0  0  0  0  0  0  0  0  0
  -18.1677   18.6250   74.1508 C   0  0  0  0  0  0  0  0  0  0  0  0
  -13.7817   22.4471   73.9063 N   0  0  0  0  0  0  0  0  0  0  0  0
  -16.8650   20.5157   73.0080 C   0  0  0  0  0  0  0  0  0  0  0  0
  -21.2417   19.8635   69.2168 C   0  0  0  0  0  0  0  0  0  0  0  0
  -19.0897   20.4625   69.2283 C   0  0  0  0  0  0  0  0  0  0  0  0
  -15.6519   21.9974   69.4412 C   0  0  0  0  0  0  0  0  0  0  0  0
  -16.5184   22.4027   66.5349 N   0  0  0  0  0  0  0  0  0  0  0  0
  -17.3488   21.7491   67.4619 C   0  0  0  0  0  0  0  0  0  0  0  0
  -16.2301   21.9419   73.6195 C   0  0  0  0  0  0  0  0  0  0  0  0
  -22.3705   19.6482   69.6845 O   0  0  0  0  0  0  0  0  0  0  0  0
  -17.1311   22.8155   65.3092 C   0  0  0  0  0  0  0  0  0  0  0  0
  -14.7362   22.6822   71.6638 C   0  0  0  0  0  0  0  0  0  0  0  0
  -15.7152   21.8433   70.8935 N   0  0  0  0  0  0  0  0  0  0  0  0
  -16.2522   20.5892   71.5023 C   0  0  0  0  0  0  0  0  0  0  0  0
  -19.5126   20.7481   67.9994 C   0  0  0  0  0  0  0  0  0  0  0  0
  -16.5387   17.1147   75.0487 N   0  0  0  0  0  0  0  0  0  0  0  0
  -15.0198   23.1006   68.4553 C   0  0  0  0  0  0  0  0  0  0  0  0
  -20.0884   19.9364   70.0234 O   0  0  0  0  0  0  0  0  0  0  0  0
  -18.3130   19.1842   75.3356 O   0  0  0  0  0  0  0  0  0  0  0  0
  1 13  1  0
  1 20  1  0
  1 23  1  0
  2 25  1  0
  3 10  2  0
  3 17  1  0
  3 19  1  0
  4 18  1  0
  4 28  1  0
  5  9  1  0
  5 12  1  0
  5 27  1  0
  6 19  2  0
  6 26  1  0
  7 15  1  0
  7 26  1  0
  8 10  1  0
  8 25  1  0
 10 16  1  0
 11 12  1  0
 11 14  1  0
 12 30  1  0
 14 20  1  0
 14 25  1  0
 15 21  2  0
 15 29  1  0
 16 26  2  0
 16 29  1  0
 17 24  1  0
 17 28  1  0
 18 19  1  0
 18 22  1  0
 23 24  1  0
 24 25  1  0
M  END
>  <ID>  (1) 
conformer_0

$$$$
