
     RDKit          3D

 27 29  0  0  0  0  0  0  0  0999 V2000
  -13.7089   21.9188   73.1302 C   0  0  0  0  0  0  0  0  0  0  0  0
  -15.6910   19.6654   70.1432 C   0  0  0  0  0  0  0  0  0  0  0  0
  -18.7267   19.4317   73.8525 O   0  0  0  0  0  0  0  0  0  0  0  0
  -18.5996   21.9332   66.8309 C   0  0  0  0  0  0  0  0  0  0  0  0
  -19.5518   18.7659   72.8276 C   0  0  0  0  0  0  0  0  0  0  0  0
  -14.5722   21.0154   67.4977 O   0  0  0  0  0  0  0  0  0  0  0  0
  -18.2255   21.4401   68.0145 C   0  0  0  0  0  0  0  0  0  0  0  0
  -20.3622   20.5853   68.4728 C   0  0  0  0  0  0  0  0  0  0  0  0
  -16.6913   20.5500   69.5340 C   0  0  0  0  0  0  0  0  0  0  0  0
  -17.8021   17.5154   74.9648 C   0  0  0  0  0  0  0  0  0  0  0  0
  -16.8020   20.9766   68.1527 C   0  0  0  0  0  0  0  0  0  0  0  0
  -18.7959   16.7521   74.2477 O   0  0  0  0  0  0  0  0  0  0  0  0
  -15.7939   20.9724   74.5827 N   0  0  0  0  0  0  0  0  0  0  0  0
  -15.0899   22.5726   72.8597 C   0  0  0  0  0  0  0  0  0  0  0  0
  -16.3293   21.6773   73.3408 C   0  0  0  0  0  0  0  0  0  0  0  0
  -18.9890   20.4792   68.9861 C   0  0  0  0  0  0  0  0  0  0  0  0
  -15.9052   22.7321   66.9154 O   0  0  0  0  0  0  0  0  0  0  0  0
  -17.4368   18.8468   74.2529 C   0  0  0  0  0  0  0  0  0  0  0  0
  -15.4081   20.0404   71.6509 C   0  0  0  0  0  0  0  0  0  0  0  0
  -16.3213   19.6821   74.8718 C   0  0  0  0  0  0  0  0  0  0  0  0
  -19.1450   22.6075   68.0398 C   0  0  0  0  0  0  0  0  0  0  0  0
  -15.8758   19.1852   76.0442 O   0  0  0  0  0  0  0  0  0  0  0  0
  -18.0001   20.5015   71.6243 C   0  0  0  0  0  0  0  0  0  0  0  0
  -16.6803   20.5512   72.3840 C   0  0  0  0  0  0  0  0  0  0  0  0
  -15.7171   21.6288   67.4607 C   0  0  0  0  0  0  0  0  0  0  0  0
  -20.5730   22.0154   68.0721 C   0  0  0  0  0  0  0  0  0  0  0  0
  -18.0383   20.4693   70.1108 C   0  0  0  0  0  0  0  0  0  0  0  0
  1 14  1  0
  2  9  1  0
  2 19  1  0
  3  5  1  0
  3 18  1  0
  4  7  1  0
  6 25  2  0
  7 11  1  0
  7 16  1  0
  7 21  1  0
  8 16  1  0
  8 26  1  0
  9 11  1  0
  9 27  1  0
 10 12  1  0
 10 18  1  0
 11 25  1  0
 13 15  1  0
 13 20  1  0
 14 15  1  0
 15 24  1  0
 16 27  1  0
 17 25  1  0
 18 20  1  0
 19 24  1  0
 20 22  2  0
 21 26  1  0
 23 24  1  0
 23 27  2  0
M  END
>  <ID>  (1) 
conformer_0

$$$$
