
     RDKit          3D

 35 40  0  0  0  0  0  0  0  0999 V2000
  -18.0203   20.8354   67.0650 O   0  0  0  0  0  0  0  0  0  0  0  0
  -15.7141   22.0023   73.7222 C   0  0  0  0  0  0  0  0  0  0  0  0
  -20.4219   21.6084   69.3534 C   0  0  0  0  0  0  0  0  0  0  0  0
  -17.4852   21.7144   69.2426 C   0  0  0  0  0  0  0  0  0  0  0  0
  -16.0820   22.0906   69.7998 C   0  0  0  0  0  0  0  0  0  0  0  0
  -13.9924   23.5015   71.3558 C   0  0  0  0  0  0  0  0  0  0  0  0
  -18.7458   16.7855   74.8436 O   0  0  0  0  0  0  0  0  0  0  0  0
  -14.8203   22.5837   69.1531 C   0  0  0  0  0  0  0  0  0  0  0  0
  -19.1567   21.7478   67.3529 C   0  0  0  0  0  0  0  0  0  0  0  0
  -14.9391   23.9933   68.9174 O   0  0  0  0  0  0  0  0  0  0  0  0
  -17.8913   18.9933   74.1602 C   0  0  0  0  0  0  0  0  0  0  0  0
  -16.0542   19.4162   75.6928 O   0  0  0  0  0  0  0  0  0  0  0  0
  -18.9110   17.9186   73.8496 C   0  0  0  0  0  0  0  0  0  0  0  0
  -16.4429   18.9526   72.1956 O   0  0  0  0  0  0  0  0  0  0  0  0
  -21.0393   20.2550   68.9131 C   0  0  0  0  0  0  0  0  0  0  0  0
  -18.0201   21.5776   74.4972 C   0  0  0  0  0  0  0  0  0  0  0  0
  -16.8401   18.4416   75.1703 C   0  0  0  0  0  0  0  0  0  0  0  0
  -15.5502   20.5874   67.8341 C   0  0  0  0  0  0  0  0  0  0  0  0
  -16.2607   17.3353   74.8418 O   0  0  0  0  0  0  0  0  0  0  0  0
  -12.7729   23.2681   72.2134 O   0  0  0  0  0  0  0  0  0  0  0  0
  -13.3816   22.2257   73.0713 C   0  0  0  0  0  0  0  0  0  0  0  0
  -17.5857   21.8589   72.0179 C   0  0  0  0  0  0  0  0  0  0  0  0
  -13.7144   22.4380   70.2074 C   0  0  0  0  0  0  0  0  0  0  0  0
  -16.9704   19.7289   73.1752 C   0  0  0  0  0  0  0  0  0  0  0  0
  -16.9834   21.2279   73.3363 C   0  0  0  0  0  0  0  0  0  0  0  0
  -19.0002   21.9438   68.8545 C   0  0  0  0  0  0  0  0  0  0  0  0
  -16.1849   22.5578   67.1069 C   0  0  0  0  0  0  0  0  0  0  0  0
  -20.5035   22.1247   67.1205 O   0  0  0  0  0  0  0  0  0  0  0  0
  -18.5691   19.9037   70.5753 O   0  0  0  0  0  0  0  0  0  0  0  0
  -21.1695   22.5625   68.4013 C   0  0  0  0  0  0  0  0  0  0  0  0
  -16.8634   21.3644   67.8462 C   0  0  0  0  0  0  0  0  0  0  0  0
  -14.6837   22.0030   67.7111 C   0  0  0  0  0  0  0  0  0  0  0  0
  -17.9442   21.1367   70.7385 C   0  0  0  0  0  0  0  0  0  0  0  0
  -14.8145   22.7017   72.5518 C   0  0  0  0  0  0  0  0  0  0  0  0
  -16.6433   22.5412   65.7836 O   0  0  0  0  0  0  0  0  0  0  0  0
  1  9  1  0
  1 31  1  0
  2 25  1  0
  2 34  1  0
  3 15  1  0
  3 26  1  0
  3 30  1  0
  4  5  1  0
  4 26  1  0
  4 31  1  0
  4 33  1  0
  5  8  1  0
  6 20  1  0
  6 23  1  0
  6 34  1  0
  7 13  1  0
  8 10  1  0
  8 23  1  0
  8 32  1  0
  9 26  1  0
  9 28  1  0
 11 13  1  0
 11 17  1  0
 11 24  1  0
 12 17  2  0
 14 24  1  0
 16 25  1  0
 17 19  1  0
 18 31  1  0
 18 32  1  0
 20 21  1  0
 21 34  1  0
 22 25  1  0
 22 33  1  0
 24 25  1  0
 27 31  1  0
 27 32  1  0
 27 35  1  0
 28 30  1  0
 29 33  1  0
M  END
>  <ID>  (1) 
conformer_0

$$$$
