
     RDKit          3D

 34 38  0  0  0  0  0  0  0  0999 V2000
  -17.4913   21.2049   68.2033 C   0  0  0  0  0  0  0  0  0  0  0  0
  -19.8911   21.9683   68.5377 C   0  0  0  0  0  0  0  0  0  0  0  0
  -21.1238   21.8019   69.1781 C   0  0  0  0  0  0  0  0  0  0  0  0
  -16.4461   21.0166   72.3757 C   0  0  0  0  0  0  0  0  0  0  0  0
  -13.2376   23.7163   70.9724 C   0  0  0  0  0  0  0  0  0  0  0  0
  -17.2887   24.5794   67.2418 O   0  0  0  0  0  0  0  0  0  0  0  0
  -15.3083   21.9496   71.6618 C   0  0  0  0  0  0  0  0  0  0  0  0
  -21.2720   20.8037   70.1811 C   0  0  0  0  0  0  0  0  0  0  0  0
  -19.7744   23.0787   67.5264 C   0  0  0  0  0  0  0  0  0  0  0  0
  -18.2391   18.0659   74.2346 C   0  0  0  0  0  0  0  0  0  0  0  0
  -17.5440   21.9447   72.4558 O   0  0  0  0  0  0  0  0  0  0  0  0
  -14.8598   22.9737   69.2570 N   0  0  0  0  0  0  0  0  0  0  0  0
  -14.3798   22.2111   72.6240 C   0  0  0  0  0  0  0  0  0  0  0  0
  -15.1161   22.5454   70.3973 C   0  0  0  0  0  0  0  0  0  0  0  0
  -15.7818   20.6631   73.6684 N   0  0  0  0  0  0  0  0  0  0  0  0
  -13.3362   23.1058   72.3425 C   0  0  0  0  0  0  0  0  0  0  0  0
  -16.2898   19.8684   74.7820 C   0  0  0  0  0  0  0  0  0  0  0  0
  -14.4316   21.7703   67.2760 C   0  0  0  0  0  0  0  0  0  0  0  0
  -14.5850   21.4520   73.9064 C   0  0  0  0  0  0  0  0  0  0  0  0
  -16.7939   22.4565   68.0600 C   0  0  0  0  0  0  0  0  0  0  0  0
  -15.3604   22.5466   68.0696 C   0  0  0  0  0  0  0  0  0  0  0  0
  -17.3151   19.6261   72.2823 N   0  0  0  0  0  0  0  0  0  0  0  0
  -16.2159   17.4150   75.3328 O   0  0  0  0  0  0  0  0  0  0  0  0
  -18.7015   22.7798   66.4150 C   0  0  0  0  0  0  0  0  0  0  0  0
  -14.1664   23.3025   70.0880 C   0  0  0  0  0  0  0  0  0  0  0  0
  -18.2122   18.4212   72.7570 C   0  0  0  0  0  0  0  0  0  0  0  0
  -20.2281   19.9468   70.4411 C   0  0  0  0  0  0  0  0  0  0  0  0
  -16.2971   20.6539   75.9467 O   0  0  0  0  0  0  0  0  0  0  0  0
  -17.4107   23.2587   66.9467 C   0  0  0  0  0  0  0  0  0  0  0  0
  -18.5161   16.6780   74.4222 O   0  0  0  0  0  0  0  0  0  0  0  0
  -18.8506   21.0628   68.8146 C   0  0  0  0  0  0  0  0  0  0  0  0
  -19.0589   20.0735   69.7355 C   0  0  0  0  0  0  0  0  0  0  0  0
  -16.8645   20.0436   67.9782 O   0  0  0  0  0  0  0  0  0  0  0  0
  -16.9349   18.5095   74.9067 C   0  0  0  0  0  0  0  0  0  0  0  0
  1 20  1  0
  1 31  1  0
  1 33  1  0
  2  3  2  0
  2  9  1  0
  2 31  1  0
  3  8  1  0
  4  7  1  0
  4 11  1  0
  4 15  1  0
  4 22  1  0
  5 16  2  0
  5 25  1  0
  6 29  1  0
  7 13  2  0
  7 14  1  0
  8 27  2  0
  9 24  1  0
 10 26  1  0
 10 30  1  0
 10 34  1  0
 12 21  1  0
 12 25  1  0
 13 16  1  0
 13 19  1  0
 14 25  2  0
 15 17  1  0
 15 19  1  0
 17 28  2  0
 17 34  1  0
 18 21  1  0
 20 21  1  0
 20 29  1  0
 22 26  1  0
 23 34  1  0
 24 29  1  0
 27 32  1  0
 31 32  2  0
M  END
>  <ID>  (1) 
conformer_0

$$$$
