
     RDKit          3D

 25 25  0  0  0  0  0  0  0  0999 V2000
  -15.3440   20.6009   71.6593 C   0  0  0  0  0  0  0  0  0  0  0  0
  -17.6364   19.9196   72.5961 C   0  0  0  0  0  0  0  0  0  0  0  0
  -17.1228   18.0574   74.3754 C   0  0  0  0  0  0  0  0  0  0  0  0
  -15.3424   22.8084   73.1852 C   0  0  0  0  0  0  0  0  0  0  0  0
  -18.6450   21.7861   70.6792 C   0  0  0  0  0  0  0  0  0  0  0  0
  -16.0517   18.6203   75.0442 O   0  0  0  0  0  0  0  0  0  0  0  0
  -18.2299   19.0732   73.8474 C   0  0  0  0  0  0  0  0  0  0  0  0
  -18.1160   20.9199   67.0717 N   0  0  0  0  0  0  0  0  0  0  0  0
  -17.4094   22.0767   66.9300 C   0  0  0  0  0  0  0  0  0  0  0  0
  -18.8973   16.5310   74.1118 O   0  0  0  0  0  0  0  0  0  0  0  0
  -17.4676   23.1148   68.3854 S   0  0  0  0  0  0  0  0  0  0  0  0
  -13.9059   23.0180   73.6051 C   0  0  0  0  0  0  0  0  0  0  0  0
  -19.8002   19.6569   68.7098 C   0  0  0  0  0  0  0  0  0  0  0  0
  -18.4037   21.8510   69.2056 C   0  0  0  0  0  0  0  0  0  0  0  0
  -13.3358   24.2284   72.9972 C   0  0  0  0  0  0  0  0  0  0  0  0
  -15.5026   20.1050   70.3156 O   0  0  0  0  0  0  0  0  0  0  0  0
  -19.7502   22.1759   71.0716 O   0  0  0  0  0  0  0  0  0  0  0  0
  -15.3850   22.1148   71.7964 C   0  0  0  0  0  0  0  0  0  0  0  0
  -13.2757   21.8198   73.6571 O   0  0  0  0  0  0  0  0  0  0  0  0
  -16.0857   19.6234   72.5686 C   0  0  0  0  0  0  0  0  0  0  0  0
  -17.9024   16.9426   75.0923 C   0  0  0  0  0  0  0  0  0  0  0  0
  -18.4067   20.0692   74.8502 O   0  0  0  0  0  0  0  0  0  0  0  0
  -17.8709   21.0477   71.5982 N   0  0  0  0  0  0  0  0  0  0  0  0
  -18.7586   20.8196   68.3100 C   0  0  0  0  0  0  0  0  0  0  0  0
  -16.7202   22.5423   65.9214 O   0  0  0  0  0  0  0  0  0  0  0  0
  1 16  1  0
  1 18  1  0
  1 20  1  0
  2  7  1  0
  2 20  1  0
  2 23  1  0
  3  6  1  0
  3  7  1  0
  3 21  1  0
  4 12  1  0
  4 18  1  0
  5 14  1  0
  5 17  2  0
  5 23  1  0
  7 22  1  0
  8  9  1  0
  8 24  1  0
  9 11  1  0
  9 25  2  0
 10 21  1  0
 11 14  1  0
 12 15  1  0
 12 19  1  0
 13 24  1  0
 14 24  1  0
M  END
>  <ID>  (1) 
conformer_0

$$$$
