
     RDKit          3D

 27 29  0  0  0  0  0  0  0  0999 V2000
  -15.8733   23.5953   68.5306 C   0  0  0  0  0  0  0  0  0  0  0  0
  -15.7129   21.8370   69.9975 C   0  0  0  0  0  0  0  0  0  0  0  0
  -15.9734   20.4623   74.3203 C   0  0  0  0  0  0  0  0  0  0  0  0
  -16.8634   20.5727   71.8744 C   0  0  0  0  0  0  0  0  0  0  0  0
  -19.3242   19.9237   70.4565 O   0  0  0  0  0  0  0  0  0  0  0  0
  -21.8283   20.1689   69.4556 F   0  0  0  0  0  0  0  0  0  0  0  0
  -17.4750   18.3629   74.6859 C   0  0  0  0  0  0  0  0  0  0  0  0
  -20.7566   20.5895   68.6109 C   0  0  0  0  0  0  0  0  0  0  0  0
  -15.6892   23.2194   69.8616 C   0  0  0  0  0  0  0  0  0  0  0  0
  -16.4165   20.7163   75.6143 O   0  0  0  0  0  0  0  0  0  0  0  0
  -18.3252   17.1441   74.7907 C   0  0  0  0  0  0  0  0  0  0  0  0
  -15.6996   20.0355   68.3498 O   0  0  0  0  0  0  0  0  0  0  0  0
  -21.0006   21.2651   67.4334 C   0  0  0  0  0  0  0  0  0  0  0  0
  -16.1471   18.0094   75.0247 O   0  0  0  0  0  0  0  0  0  0  0  0
  -14.9858   21.5145   73.8026 C   0  0  0  0  0  0  0  0  0  0  0  0
  -18.1781   20.3016   71.1636 C   0  0  0  0  0  0  0  0  0  0  0  0
  -19.8970   21.5534   66.5858 C   0  0  0  0  0  0  0  0  0  0  0  0
  -15.8528   21.3326   68.6395 C   0  0  0  0  0  0  0  0  0  0  0  0
  -17.9432   19.2065   73.6171 O   0  0  0  0  0  0  0  0  0  0  0  0
  -18.6579   21.0881   66.9632 C   0  0  0  0  0  0  0  0  0  0  0  0
  -14.8521   21.7995   72.3166 C   0  0  0  0  0  0  0  0  0  0  0  0
  -15.9785   22.4403   67.7139 C   0  0  0  0  0  0  0  0  0  0  0  0
  -18.4847   20.4127   68.1555 C   0  0  0  0  0  0  0  0  0  0  0  0
  -17.1075   20.3584   73.3489 C   0  0  0  0  0  0  0  0  0  0  0  0
  -19.4739   20.2790   69.0505 C   0  0  0  0  0  0  0  0  0  0  0  0
  -15.7316   21.2456   71.2956 N   0  0  0  0  0  0  0  0  0  0  0  0
  -19.0907   16.9171   73.5774 O   0  0  0  0  0  0  0  0  0  0  0  0
  1  9  1  0
  1 22  1  0
  2  9  1  0
  2 18  1  0
  2 26  1  0
  3 10  1  0
  3 15  1  0
  3 24  1  0
  4 16  1  0
  4 24  1  0
  4 26  1  0
  5 16  1  0
  5 25  1  0
  6  8  1  0
  7 11  1  0
  7 14  2  0
  7 19  1  0
  8 13  2  0
  8 25  1  0
 11 27  1  0
 12 18  1  0
 13 17  1  0
 15 21  2  0
 17 20  2  0
 18 22  1  0
 19 24  1  0
 20 23  1  0
 21 26  1  0
 23 25  2  0
M  END
>  <ID>  (1) 
conformer_0

$$$$
