
     RDKit          3D

 29 32  0  0  0  0  0  0  0  0999 V2000
  -15.5857   20.1443   71.7333 C   0  0  0  0  0  0  0  0  0  0  0  0
  -17.5204   17.6757   74.2353 C   0  0  0  0  0  0  0  0  0  0  0  0
  -19.6489   18.3953   73.3375 O   0  0  0  0  0  0  0  0  0  0  0  0
  -18.3650   18.9606   73.8495 C   0  0  0  0  0  0  0  0  0  0  0  0
  -17.7281   19.6489   72.6357 C   0  0  0  0  0  0  0  0  0  0  0  0
  -16.1604   18.3885   76.0655 O   0  0  0  0  0  0  0  0  0  0  0  0
  -18.3081   20.0887   71.4379 C   0  0  0  0  0  0  0  0  0  0  0  0
  -18.4876   16.8173   74.9817 O   0  0  0  0  0  0  0  0  0  0  0  0
  -17.9935   21.2957   69.1505 C   0  0  0  0  0  0  0  0  0  0  0  0
  -18.8059   23.3055   67.2786 C   0  0  0  0  0  0  0  0  0  0  0  0
  -16.1418   20.4731   70.4713 C   0  0  0  0  0  0  0  0  0  0  0  0
  -20.2468   20.1933   68.9314 C   0  0  0  0  0  0  0  0  0  0  0  0
  -16.9925   18.8943   74.9698 C   0  0  0  0  0  0  0  0  0  0  0  0
  -15.8728   19.7563   74.2001 C   0  0  0  0  0  0  0  0  0  0  0  0
  -14.8452   23.9416   67.1116 C   0  0  0  0  0  0  0  0  0  0  0  0
  -17.5278   20.6018   70.3396 C   0  0  0  0  0  0  0  0  0  0  0  0
  -15.2761   20.6404   69.3443 C   0  0  0  0  0  0  0  0  0  0  0  0
  -13.7708   21.7629   67.1934 O   0  0  0  0  0  0  0  0  0  0  0  0
  -19.7716   22.3899   67.8536 C   0  0  0  0  0  0  0  0  0  0  0  0
  -18.2092   24.6372   65.3103 C   0  0  0  0  0  0  0  0  0  0  0  0
  -15.6591   21.7691   68.5302 C   0  0  0  0  0  0  0  0  0  0  0  0
  -14.5679   22.7058   68.0057 C   0  0  0  0  0  0  0  0  0  0  0  0
  -13.9197   23.3332   69.2641 C   0  0  0  0  0  0  0  0  0  0  0  0
  -16.3718   19.8454   72.8342 C   0  0  0  0  0  0  0  0  0  0  0  0
  -17.0518   22.0501   68.3897 C   0  0  0  0  0  0  0  0  0  0  0  0
  -19.3145   21.3511   68.6824 C   0  0  0  0  0  0  0  0  0  0  0  0
  -17.4847   23.0070   67.5124 C   0  0  0  0  0  0  0  0  0  0  0  0
  -15.7786   20.9629   74.9218 O   0  0  0  0  0  0  0  0  0  0  0  0
  -19.1602   24.5064   66.4679 C   0  0  0  0  0  0  0  0  0  0  0  0
  1 11  1  0
  1 24  2  0
  2  4  1  0
  2  8  1  0
  2 13  1  0
  3  4  1  0
  4  5  1  0
  5  7  2  0
  5 24  1  0
  6 13  1  0
  7 16  1  0
  9 16  1  0
  9 25  1  0
  9 26  1  0
 10 19  2  0
 10 27  1  0
 10 29  1  0
 11 16  1  0
 11 17  1  0
 12 26  1  0
 13 14  1  0
 14 24  1  0
 14 28  1  0
 15 22  1  0
 17 21  1  0
 18 22  1  0
 19 26  1  0
 20 29  1  0
 21 22  1  0
 21 25  1  0
 22 23  1  0
 25 27  2  0
M  END
>  <ID>  (1) 
conformer_0

$$$$
