
     RDKit          3D

 36 39  0  0  0  0  0  0  0  0999 V2000
  -17.0637   22.5415   69.5461 N   0  0  0  0  0  0  0  0  0  0  0  0
  -15.2754   23.4901   66.0034 C   0  0  0  0  0  0  0  0  0  0  0  0
  -16.4987   23.7376   65.2526 O   0  0  0  0  0  0  0  0  0  0  0  0
  -14.7931   22.6659   71.2330 C   0  0  0  0  0  0  0  0  0  0  0  0
  -18.3278   25.0434   66.2042 C   0  0  0  0  0  0  0  0  0  0  0  0
  -16.9723   19.8117   73.8115 C   0  0  0  0  0  0  0  0  0  0  0  0
  -21.9279   19.6136   70.2750 O   0  0  0  0  0  0  0  0  0  0  0  0
  -17.0753   21.3041   73.9240 C   0  0  0  0  0  0  0  0  0  0  0  0
  -16.8496   21.7248   66.9944 C   0  0  0  0  0  0  0  0  0  0  0  0
  -15.1451   22.9040   73.9582 C   0  0  0  0  0  0  0  0  0  0  0  0
  -13.9642   24.1393   66.2706 C   0  0  0  0  0  0  0  0  0  0  0  0
  -15.7261   21.8558   71.8783 C   0  0  0  0  0  0  0  0  0  0  0  0
  -19.1049   21.6705   69.0115 C   0  0  0  0  0  0  0  0  0  0  0  0
  -15.4984   22.2715   66.8256 C   0  0  0  0  0  0  0  0  0  0  0  0
  -21.3840   20.5354   69.6546 C   0  0  0  0  0  0  0  0  0  0  0  0
  -20.3106   23.1595   67.6909 C   0  0  0  0  0  0  0  0  0  0  0  0
  -15.7820   19.3520   71.5825 C   0  0  0  0  0  0  0  0  0  0  0  0
  -19.0820   22.5696   67.9529 C   0  0  0  0  0  0  0  0  0  0  0  0
  -17.9119   22.7636   67.0922 N   0  0  0  0  0  0  0  0  0  0  0  0
  -15.9487   22.0367   73.2411 C   0  0  0  0  0  0  0  0  0  0  0  0
  -17.8154   21.5900   69.6667 C   0  0  0  0  0  0  0  0  0  0  0  0
  -14.4121   21.9677   67.8281 C   0  0  0  0  0  0  0  0  0  0  0  0
  -13.9945   23.5308   71.9500 C   0  0  0  0  0  0  0  0  0  0  0  0
  -16.5518   16.9383   74.8360 O   0  0  0  0  0  0  0  0  0  0  0  0
  -13.4716   21.0823   67.1838 O   0  0  0  0  0  0  0  0  0  0  0  0
  -17.2856   17.8728   75.1055 C   0  0  0  0  0  0  0  0  0  0  0  0
  -16.3761   20.7100   71.3493 N   0  0  0  0  0  0  0  0  0  0  0  0
  -21.4810   22.6211   68.2606 C   0  0  0  0  0  0  0  0  0  0  0  0
  -17.4923   20.6282   70.5578 C   0  0  0  0  0  0  0  0  0  0  0  0
  -20.2545   21.0193   69.4577 C   0  0  0  0  0  3  0  0  0  0  0  0
  -16.5619   19.2547   75.2149 C   0  0  0  0  0  0  0  0  0  0  0  0
  -21.4269   21.4913   69.0574 C   0  0  0  0  0  0  0  0  0  0  0  0
  -14.1384   23.6300   73.3505 C   0  0  0  0  0  0  0  0  0  0  0  0
  -16.3490   18.8249   72.8532 C   0  0  0  0  0  0  0  0  0  0  0  0
  -17.7748   23.6213   65.9056 C   0  0  0  0  0  0  0  0  0  0  0  0
  -18.5252   18.0184   75.0981 O   0  0  0  0  0  0  0  0  0  0  0  0
  1 21  2  0
  2  3  1  0
  2 11  1  0
  2 14  2  0
  3 35  1  0
  4 12  1  0
  4 23  2  0
  5 35  1  0
  6  8  1  0
  6 31  1  0
  6 34  1  0
  7 15  1  0
  8 20  1  0
  9 14  1  0
  9 19  1  0
 10 20  1  0
 10 33  2  0
 12 20  1  0
 12 27  1  0
 13 18  1  0
 13 21  1  0
 13 30  2  0
 14 22  1  0
 15 30  1  0
 15 32  2  0
 16 18  1  0
 16 28  1  0
 17 27  1  0
 17 34  1  0
 18 19  1  0
 19 35  1  0
 21 29  1  0
 22 25  1  0
 23 33  1  0
 24 26  2  0
 26 31  1  0
 26 36  1  0
 27 29  1  0
 28 32  2  0
M  END
>  <ID>  (1) 
conformer_0

$$$$
