
     RDKit          3D

 28 31  0  0  0  0  0  0  0  0999 V2000
  -18.8209   19.3943   73.0281 C   0  0  0  0  0  0  0  0  0  0  0  0
  -15.8851   22.2143   69.7747 C   0  0  0  0  0  0  0  0  0  0  0  0
  -17.2360   17.9120   74.0664 C   0  0  0  0  0  0  0  0  0  0  0  0
  -15.2623   21.0344   74.0457 N   0  0  0  0  0  0  0  0  0  0  0  0
  -16.2189   20.9367   71.8018 N   0  0  0  0  0  0  0  0  0  0  0  0
  -14.7313   22.4435   70.6338 C   0  0  0  0  0  0  0  0  0  0  0  0
  -17.9764   20.6064   73.4889 C   0  0  0  0  0  0  0  0  0  0  0  0
  -13.5180   22.8218   73.6234 C   0  0  0  0  0  0  0  0  0  0  0  0
  -16.6299   20.9492   67.5816 C   0  0  0  0  0  0  0  0  0  0  0  0
  -21.1068   21.1470   68.6410 C   0  0  0  0  0  0  0  0  0  0  0  0
  -16.4901   21.8245   66.7162 O   0  0  0  0  0  0  0  0  0  0  0  0
  -17.9535   18.2293   72.8327 O   0  0  0  0  0  0  0  0  0  0  0  0
  -14.8583   22.2601   73.2857 C   0  0  0  0  0  0  0  0  0  0  0  0
  -18.2644   17.1461   74.8929 N   0  0  0  0  0  0  0  0  0  0  0  0
  -20.5973   21.9274   69.6739 C   0  0  0  0  0  0  0  0  0  0  0  0
  -19.0465   16.3257   74.0525 O   0  0  0  0  0  0  0  0  0  0  0  0
  -16.3893   20.1964   73.3877 C   0  0  0  0  0  0  0  0  0  0  0  0
  -18.1442   21.4262   69.5982 C   0  0  0  0  0  0  0  0  0  0  0  0
  -14.9476   21.6984   71.8760 C   0  0  0  0  0  0  0  0  0  0  0  0
  -15.5299   20.2431   67.8212 O   0  0  0  0  0  0  0  0  0  0  0  0
  -17.9611   20.8867   68.2995 C   0  0  0  0  0  0  0  0  0  0  0  0
  -18.9953   20.2776   67.6476 C   0  0  0  0  0  0  0  0  0  0  0  0
  -19.2790   22.0372   70.0360 C   0  0  0  0  0  0  0  0  0  0  0  0
  -15.9122   23.3262   73.6191 C   0  0  0  0  0  0  0  0  0  0  0  0
  -15.6193   19.0629   75.5959 O   0  0  0  0  0  0  0  0  0  0  0  0
  -16.8918   21.3381   70.5049 C   0  0  0  0  0  0  0  0  0  0  0  0
  -16.6558   19.1066   74.7139 C   0  0  0  0  0  0  0  0  0  0  0  0
  -20.3309   20.3683   67.8366 C   0  0  0  0  0  0  0  0  0  0  0  0
  1  7  1  0
  1 12  1  0
  2  6  1  0
  2 26  1  0
  3 12  1  0
  3 14  1  0
  3 27  1  0
  4 13  1  0
  4 17  1  0
  5 17  1  0
  5 19  1  0
  5 26  1  0
  6 19  1  0
  7 17  1  0
  8 13  1  0
  9 11  2  0
  9 20  1  0
  9 21  1  0
 10 15  1  0
 10 28  1  0
 13 19  1  0
 13 24  1  0
 14 16  1  0
 15 23  2  0
 17 27  1  0
 18 21  1  0
 18 23  1  0
 18 26  1  0
 21 22  1  0
 22 28  2  0
 25 27  1  0
M  END
>  <ID>  (1) 
conformer_0

$$$$
