
     RDKit          3D

 28 29  0  0  0  0  0  0  0  0999 V2000
  -16.8296   19.9835   73.3804 C   0  0  0  0  0  0  0  0  0  0  0  0
  -19.1397   21.2543   68.5648 C   0  0  0  0  0  0  0  0  0  0  0  0
  -15.4343   21.2664   71.2638 C   0  0  0  0  0  0  0  0  0  0  0  0
  -20.1476   22.0961   66.6709 C   0  0  0  0  0  0  0  0  0  0  0  0
  -20.9185   21.0210   67.1813 N   0  0  0  0  0  0  0  0  0  0  0  0
  -13.4007   22.5771   71.0778 O   0  0  0  0  0  0  0  0  0  0  0  0
  -18.5430   16.7681   74.7727 O   0  0  0  0  0  0  0  0  0  0  0  0
  -15.9329   20.7852   67.7248 O   0  0  0  0  0  0  0  0  0  0  0  0
  -16.3925   18.3543   75.3278 O   0  0  0  0  0  0  0  0  0  0  0  0
  -17.4766   18.9360   74.6021 C   0  0  0  0  0  0  0  0  0  0  0  0
  -14.8943   22.4872   69.1084 C   0  0  0  0  0  0  0  0  0  0  0  0
  -17.9057   22.7546   66.9906 O   0  0  0  0  0  0  0  0  0  0  0  0
  -17.0378   21.4152   75.4689 C   0  0  0  0  0  0  0  0  0  0  0  0
  -15.5025   20.4118   70.0328 O   0  0  0  0  0  0  0  0  0  0  0  0
  -18.3746   17.8664   73.9435 C   0  0  0  0  0  0  0  0  0  0  0  0
  -16.1738   18.9728   72.6016 O   0  0  0  0  0  0  0  0  0  0  0  0
  -13.6985   22.2944   68.4394 O   0  0  0  0  0  0  0  0  0  0  0  0
  -18.4339   21.1948   69.7937 C   0  0  0  0  0  0  0  0  0  0  0  0
  -16.7846   21.1450   72.1744 C   0  0  0  0  0  0  0  0  0  0  0  0
  -19.1646   20.9648   70.8689 O   0  0  0  0  0  0  0  0  0  0  0  0
  -17.2133   21.7885   69.4428 N   0  0  0  0  0  0  0  0  0  0  0  0
  -18.9441   22.1508   67.4930 C   0  0  0  0  0  0  0  0  0  0  0  0
  -16.0679   20.7738   74.5057 C   0  0  0  0  0  0  0  0  0  0  0  0
  -14.7589   22.5398   70.6658 C   0  0  0  0  0  0  0  0  0  0  0  0
  -15.9093   21.3071   68.9193 C   0  0  0  0  0  0  0  0  0  0  0  0
  -15.0195   21.5477   74.0462 O   0  0  0  0  0  0  0  0  0  0  0  0
  -20.4296   20.6269   68.4650 C   0  0  0  0  0  0  0  0  0  0  0  0
  -19.4688   18.4448   73.3386 O   0  0  0  0  0  0  0  0  0  0  0  0
  1 10  1  0
  1 16  1  0
  1 19  1  0
  1 23  1  0
  2 18  1  0
  2 22  1  0
  2 27  1  0
  3 14  1  0
  3 19  1  0
  3 24  1  0
  4  5  1  0
  4 22  1  0
  5 27  1  0
  6 24  1  0
  7 15  1  0
  8 25  1  0
  9 10  1  0
 10 15  1  0
 11 17  1  0
 11 24  1  0
 11 25  1  0
 12 22  1  0
 13 23  1  0
 14 25  1  0
 15 28  1  0
 18 20  2  0
 18 21  1  0
 21 25  1  0
 23 26  1  0
M  END
>  <ID>  (1) 
conformer_0

$$$$
