
     RDKit          3D

 27 31  0  0  0  0  0  0  0  0999 V2000
  -16.1306   21.9330   72.2646 O   0  0  0  0  0  0  0  0  0  0  0  0
  -15.8994   20.2305   73.9471 C   0  0  0  0  0  0  0  0  0  0  0  0
  -17.4377   18.3533   74.8322 C   0  0  0  0  0  0  0  0  0  0  0  0
  -17.9898   22.2239   69.7874 C   0  0  0  0  0  0  0  0  0  0  0  0
  -18.2132   17.1769   75.1317 O   0  0  0  0  0  0  0  0  0  0  0  0
  -18.2051   19.1401   73.7130 C   0  0  0  0  0  0  0  0  0  0  0  0
  -16.9959   23.5248   67.9066 C   0  0  0  0  0  0  0  0  0  0  0  0
  -16.3105   19.2852   75.1098 O   0  0  0  0  0  0  0  0  0  0  0  0
  -20.3191   22.4941   69.1587 C   0  0  0  0  0  0  0  0  0  0  0  0
  -17.9414   20.8484   67.8402 C   0  0  0  0  0  0  0  0  0  0  0  0
  -19.3745   21.4619   69.7485 C   0  0  0  0  0  0  0  0  0  0  0  0
  -19.9616   22.6224   67.6588 C   0  0  0  0  0  0  0  0  0  0  0  0
  -17.0876   19.9043   72.9942 C   0  0  0  0  0  0  0  0  0  0  0  0
  -20.1863   21.3131   67.0715 C   0  0  0  0  0  0  0  0  0  0  0  0
  -14.8857   24.4501   67.1991 C   0  0  0  0  0  0  0  0  0  0  0  0
  -17.6736   22.2205   68.2593 C   0  0  0  0  0  0  0  0  0  0  0  0
  -15.7640   23.2787   67.1446 C   0  0  0  0  0  0  0  0  0  0  0  0
  -17.1662   21.0424   70.4483 C   0  0  0  0  0  0  0  0  0  0  0  0
  -18.7440   21.9465   67.2403 C   0  0  0  0  0  0  0  0  0  0  0  0
  -14.5151   22.2640   73.9157 O   0  0  0  0  0  0  0  0  0  0  0  0
  -20.2727   20.0781   67.9287 C   0  0  0  0  0  0  0  0  0  0  0  0
  -15.5647   22.1075   66.7586 O   0  0  0  0  0  0  0  0  0  0  0  0
  -17.2566   21.0215   72.0074 C   0  0  0  0  0  0  0  0  0  0  0  0
  -15.1327   21.3170   73.1135 C   0  0  0  0  0  0  0  0  0  0  0  0
  -19.0362   20.2129   68.8537 C   0  0  0  0  0  0  0  0  0  0  0  0
  -19.4153   18.4131   73.2929 N   0  0  0  0  0  0  0  0  0  0  0  0
  -21.3090   19.5170   68.6377 O   0  0  0  0  0  0  0  0  0  0  0  0
  1 23  1  0
  1 24  1  0
  2  8  1  0
  2 13  1  0
  2 24  1  0
  3  5  2  0
  3  6  1  0
  3  8  1  0
  4 11  1  0
  4 16  1  0
  4 18  1  0
  6 13  1  0
  6 26  1  0
  7 16  1  0
  7 17  1  0
  9 11  1  0
  9 12  1  0
 10 16  1  0
 10 19  1  0
 10 25  1  0
 11 25  1  0
 12 14  1  0
 12 19  1  0
 13 23  1  0
 14 21  1  0
 15 17  1  0
 17 22  2  0
 18 23  1  0
 20 24  1  0
 21 25  1  0
 21 27  1  0
M  END
>  <ID>  (1) 
conformer_0

$$$$
