
     RDKit          3D

 35 38  0  0  0  0  0  0  0  0999 V2000
  -16.9361   18.6610   74.5490 C   0  0  0  0  0  0  0  0  0  0  0  0
  -18.4244   22.8293   65.7562 C   0  0  0  0  0  0  0  0  0  0  0  0
  -17.1634   22.4795   65.4601 O   0  0  0  0  0  0  0  0  0  0  0  0
  -16.8174   22.0190   69.0493 C   0  0  0  0  0  0  0  0  0  0  0  0
  -15.1309   22.3813   66.8382 C   0  0  0  0  0  0  0  0  0  0  0  0
  -17.8548   19.1268   71.8050 O   0  0  0  0  0  0  0  0  0  0  0  0
  -14.5752   22.2442   68.1459 C   0  0  0  0  0  0  0  0  0  0  0  0
  -17.4814   21.6649   71.5234 C   0  0  0  0  0  0  0  0  0  0  0  0
  -20.9716   22.9006   69.5861 C   0  0  0  0  0  0  0  0  0  0  0  0
  -19.0332   17.3525   73.5174 O   0  0  0  0  0  0  0  0  0  0  0  0
  -13.4932   22.2509   71.6409 O   0  0  0  0  0  0  0  0  0  0  0  0
  -15.5625   22.3493   74.0101 C   0  0  0  0  0  0  0  0  0  0  0  0
  -17.0735   20.1803   74.8905 C   0  0  0  0  0  0  0  0  0  0  0  0
  -20.0630   22.0127   70.1070 C   0  0  0  0  0  0  0  0  0  0  0  0
  -13.5687   22.8747   72.6812 C   0  0  0  0  0  0  0  0  0  0  0  0
  -18.9463   21.2818   69.6740 N   0  0  0  0  0  0  0  0  0  0  0  0
  -18.2179   17.8107   74.5873 C   0  0  0  0  0  0  0  0  0  0  0  0
  -18.6629   22.7085   67.2423 C   0  0  0  0  0  0  0  0  0  0  0  0
  -19.4887   23.4697   65.0653 C   0  0  0  0  0  0  0  0  0  0  0  0
  -15.4520   22.0773   69.1909 C   0  0  0  0  0  0  0  0  0  0  0  0
  -17.2441   20.2457   71.9598 C   0  0  0  0  0  0  0  0  0  0  0  0
  -13.5599   24.3603   72.6852 C   0  0  0  0  0  0  0  0  0  0  0  0
  -16.4494   20.4763   76.1773 O   0  0  0  0  0  0  0  0  0  0  0  0
  -20.5076   23.8035   66.0382 C   0  0  0  0  0  0  0  0  0  0  0  0
  -15.9897   18.0937   75.4925 O   0  0  0  0  0  0  0  0  0  0  0  0
  -19.9979   23.3168   67.3084 C   0  0  0  0  0  0  0  0  0  0  0  0
  -16.2910   21.0188   73.8790 C   0  0  0  0  0  0  0  0  0  0  0  0
  -17.7099   21.7308   70.1213 C   0  0  0  0  0  0  0  0  0  0  0  0
  -20.3144   19.3752   68.9562 O   0  0  0  0  0  0  0  0  0  0  0  0
  -14.0834   22.2332   73.8039 N   0  0  0  0  0  0  0  0  0  0  0  0
  -17.4007   22.2852   67.7782 C   0  0  0  0  0  0  0  0  0  0  0  0
  -20.9369   23.5271   68.3418 C   0  0  0  0  0  0  0  0  0  0  0  0
  -19.0203   19.9212   69.0027 C   0  0  0  0  0  0  0  0  0  0  0  0
  -16.0337   20.2729   72.7086 O   0  0  0  0  0  0  0  0  0  0  0  0
  -16.4866   22.3299   66.7021 C   0  0  0  0  0  0  0  0  0  0  0  0
  1 13  1  0
  1 17  1  0
  1 25  1  0
  2  3  1  0
  2 18  2  0
  2 19  1  0
  3 35  1  0
  4 20  2  0
  4 28  1  0
  4 31  1  0
  5  7  1  0
  5 35  2  0
  6 21  2  0
  7 20  1  0
  8 21  1  0
  8 28  1  0
  9 14  2  0
  9 32  1  0
 10 17  1  0
 11 15  2  0
 12 27  1  0
 12 30  1  0
 13 23  1  0
 13 27  1  0
 14 16  1  0
 15 22  1  0
 15 30  1  0
 16 28  1  0
 16 33  1  0
 18 26  1  0
 18 31  1  0
 19 24  1  0
 21 34  1  0
 24 26  1  0
 26 32  1  0
 27 34  1  0
 29 33  1  0
 31 35  1  0
M  END
>  <ID>  (1) 
conformer_0

$$$$
