
     RDKit          3D

 31 33  0  0  0  0  0  0  0  0999 V2000
  -18.0552   18.2652   73.5130 C   0  0  0  0  0  0  0  0  0  0  0  0
  -21.2002   20.7473   68.0645 C   0  0  0  0  0  0  0  0  0  0  0  0
  -20.5647   21.8519   67.4563 C   0  0  0  0  0  0  0  0  0  0  0  0
  -19.0380   23.4965   67.1927 N   0  0  0  0  0  0  0  0  0  0  0  0
  -18.5258   21.4270   68.6721 C   0  0  0  0  0  0  0  0  0  0  0  0
  -20.1170   23.9883   66.3983 C   0  0  0  0  0  0  0  0  0  0  0  0
  -14.1123   22.2945   66.7141 O   0  0  0  0  0  0  0  0  0  0  0  0
  -19.2099   20.3884   69.3615 C   0  0  0  0  0  0  0  0  0  0  0  0
  -14.3189   22.0218   69.0436 N   0  0  0  0  0  0  0  0  0  0  0  0
  -20.5043   20.0298   69.0745 C   0  0  0  0  0  0  0  0  0  0  0  0
  -12.6837   22.1662   66.8722 C   0  0  0  0  0  0  0  0  0  0  0  0
  -15.7512   19.1488   71.6290 O   0  0  0  0  0  0  0  0  0  0  0  0
  -15.1419   21.6818   70.0992 C   0  0  0  0  0  0  0  0  0  0  0  0
  -18.4667   16.6477   75.3139 O   0  0  0  0  0  0  0  0  0  0  0  0
  -17.1942   20.6365   70.8677 N   0  0  0  0  0  0  0  0  0  0  0  0
  -14.8841   22.0670   67.7884 C   0  0  0  0  0  0  0  0  0  0  0  0
  -16.4355   21.3220   69.9421 C   0  0  0  0  0  0  0  0  0  0  0  0
  -19.2927   22.2406   67.8136 C   0  0  0  0  0  0  0  0  0  0  0  0
  -19.1356   19.0416   72.9952 O   0  0  0  0  0  0  0  0  0  0  0  0
  -16.1301   18.7588   75.2052 O   0  0  0  0  0  0  0  0  0  0  0  0
  -16.8415   21.4392   75.3907 C   0  0  0  0  0  0  0  0  0  0  0  0
  -17.4658   18.9593   74.8215 C   0  0  0  0  0  0  0  0  0  0  0  0
  -21.1232   22.7395   66.4067 C   0  0  0  0  0  0  0  0  0  0  0  0
  -17.9505   24.2689   67.4134 O   0  0  0  0  0  0  0  0  0  0  0  0
  -15.5175   21.8006   74.7271 O   0  0  0  0  0  0  0  0  0  0  0  0
  -18.2035   16.7799   73.8821 C   0  0  0  0  0  0  0  0  0  0  0  0
  -16.2594   21.9294   67.6512 C   0  0  0  0  0  0  0  0  0  0  0  0
  -16.9359   20.6882   73.1054 C   0  0  0  0  0  0  0  0  0  0  0  0
  -16.6542   19.9743   71.8954 C   0  0  0  0  0  0  0  0  0  0  0  0
  -17.0880   21.6003   68.7252 C   0  0  0  0  0  0  0  0  0  0  0  0
  -17.5814   20.4847   74.4599 C   0  0  0  0  0  0  0  0  0  0  0  0
  1 19  1  0
  1 22  1  0
  1 26  1  0
  2  3  1  0
  2 10  1  0
  3 18  2  0
  3 23  1  0
  4  6  1  0
  4 18  1  0
  4 24  1  0
  5  8  1  0
  5 18  1  0
  5 30  1  0
  6 23  1  0
  7 11  1  0
  7 16  1  0
  8 10  2  0
  9 13  1  0
  9 16  2  0
 12 29  2  0
 13 17  1  0
 14 26  1  0
 15 17  1  0
 15 29  1  0
 16 27  1  0
 17 30  1  0
 20 22  1  0
 21 25  1  0
 21 31  1  0
 22 31  1  0
 27 30  2  0
 28 29  1  0
 28 31  1  0
M  END
>  <ID>  (1) 
conformer_0

$$$$
