
     RDKit          3D

 26 28  0  0  0  0  0  0  0  0999 V2000
  -15.1060   22.3617   74.1998 C   0  0  0  0  0  0  0  0  0  0  0  0
  -16.6743   17.2046   75.1476 O   0  0  0  0  0  0  0  0  0  0  0  0
  -15.1145   19.2256   71.7646 Cl  0  0  0  0  0  0  0  0  0  0  0  0
  -14.7033   23.3090   73.2282 C   0  0  0  0  0  0  0  0  0  0  0  0
  -17.4686   19.7432   74.8976 O   0  0  0  0  0  0  0  0  0  0  0  0
  -19.4092   21.3139   68.8913 C   0  0  0  0  0  0  0  0  0  0  0  0
  -21.7181   20.4801   69.0128 C   0  0  0  0  0  0  0  0  0  0  0  0
  -16.0167   20.1706   74.9257 C   0  0  0  0  0  0  0  0  0  0  0  0
  -17.2186   21.2985   67.9814 C   0  0  0  0  0  0  0  0  0  0  0  0
  -17.5637   20.2509   72.4823 C   0  0  0  0  0  0  0  0  0  0  0  0
  -18.7138   16.2761   75.0181 O   0  0  0  0  0  0  0  0  0  0  0  0
  -15.5825   21.8855   71.4146 C   0  0  0  0  0  0  0  0  0  0  0  0
  -16.0653   20.8673   72.4461 C   0  0  0  0  0  0  0  0  0  0  0  0
  -18.3247   17.9946   73.5069 C   0  0  0  0  0  0  0  0  0  0  0  0
  -17.9012   17.2502   74.7834 C   0  0  0  0  0  0  0  0  0  0  0  0
  -15.6794   21.1529   73.8432 N   0  0  0  0  0  0  0  0  0  0  0  0
  -18.6190   21.1839   67.6221 C   0  0  0  0  0  0  0  0  0  0  0  0
  -20.3455   20.1612   69.0638 C   0  0  0  0  0  0  0  0  0  0  0  0
  -18.4285   21.6192   69.9348 C   0  0  0  0  0  0  0  0  0  0  0  0
  -14.7223   21.1487   67.4582 C   0  0  0  0  0  0  0  0  0  0  0  0
  -21.2148   20.2537   67.7209 C   0  0  0  0  0  0  0  0  0  0  0  0
  -16.0906   21.1500   67.1061 C   0  0  0  0  0  0  0  0  0  0  0  0
  -18.0956   19.4967   73.6567 C   0  0  0  0  0  0  0  0  0  0  0  0
  -14.9235   23.0318   71.8342 C   0  0  0  0  0  0  0  0  0  0  0  0
  -15.7847   21.6955   69.9398 C   0  0  0  0  0  0  0  0  0  0  0  0
  -17.1123   21.5916   69.3354 N   0  0  0  0  0  0  0  0  0  0  0  0
  1  4  2  0
  1 16  1  0
  2 15  2  0
  3 13  1  0
  4 24  1  0
  5  8  1  0
  5 23  1  0
  6 17  1  0
  6 18  1  0
  6 19  1  0
  7 18  1  0
  7 21  1  0
  8 16  1  0
  9 17  1  0
  9 22  2  3
  9 26  1  0
 10 13  1  0
 10 23  1  0
 11 15  1  0
 12 13  1  0
 12 24  2  0
 12 25  1  0
 13 16  1  0
 14 15  1  0
 14 23  1  0
 19 26  1  0
 20 22  1  0
 25 26  1  0
M  END
>  <ID>  (1) 
conformer_0

$$$$
