
     RDKit          3D

 19 20  0  0  0  0  0  0  0  0999 V2000
  -16.2623   22.1056   73.6347 C   0  0  0  0  0  0  0  0  0  0  0  0
  -18.7875   21.6230   66.8603 O   0  0  0  0  0  0  0  0  0  0  0  0
  -16.3834   20.1523   75.4901 O   0  0  0  0  0  0  0  0  0  0  0  0
  -17.6285   21.3383   67.1750 C   0  0  0  0  0  0  0  0  0  0  0  0
  -16.3118   20.1542   70.3882 C   0  0  0  0  0  0  0  0  0  0  0  0
  -16.9213   19.8226   74.3405 C   0  0  0  0  0  0  0  0  0  0  0  0
  -18.8358   16.7178   73.9193 O   0  0  0  0  0  0  0  0  0  0  0  0
  -18.3049   20.6773   69.5705 C   0  0  0  0  0  0  0  0  0  0  0  0
  -18.2059   18.9748   74.2758 C   0  0  0  0  0  0  0  0  0  0  0  0
  -16.6624   17.2693   74.8333 O   0  0  0  0  0  0  0  0  0  0  0  0
  -17.6038   20.3687   70.7968 C   0  0  0  0  0  0  0  0  0  0  0  0
  -17.0213   20.8474   73.2071 C   0  0  0  0  0  0  0  0  0  0  0  0
  -16.5841   21.6619   66.5784 O   0  0  0  0  0  0  0  0  0  0  0  0
  -14.7925   21.7068   73.8341 N   0  0  0  0  0  0  0  0  0  0  0  0
  -16.1564   20.4344   69.0018 N   0  0  0  0  0  0  0  0  0  0  0  0
  -17.3900   20.8003   68.5129 C   0  0  0  0  0  0  0  0  0  0  0  0
  -18.8570   19.3322   72.8866 C   0  0  0  0  0  0  0  0  0  0  0  0
  -18.0610   20.4570   72.1728 C   0  0  0  0  0  0  0  0  0  0  0  0
  -17.8783   17.4745   74.3993 C   0  0  0  0  0  0  0  0  0  0  0  0
  1 12  1  0
  1 14  1  0
  2  4  2  0
  3  6  1  0
  4 13  1  0
  4 16  1  0
  5 11  1  0
  5 15  1  0
  6  9  1  0
  6 12  1  0
  7 19  2  0
  8 11  1  0
  8 16  1  0
  9 17  1  0
  9 19  1  0
 10 19  1  0
 11 18  1  0
 12 18  1  0
 15 16  1  0
 17 18  1  0
M  END
>  <ID>  (1) 
conformer_0

$$$$
