
     RDKit          3D

 26 27  0  0  0  0  0  0  0  0999 V2000
  -17.3420   20.4625   70.4065 C   0  0  0  0  0  0  0  0  0  0  0  0
  -15.7889   20.3905   71.0005 C   0  0  0  0  0  0  0  0  0  0  0  0
  -14.6168   20.7588   68.2325 O   0  0  0  0  0  0  0  0  0  0  0  0
  -16.8204   19.9572   74.0868 C   0  0  0  0  0  0  0  0  0  0  0  0
  -14.8089   21.6613   73.2486 C   0  0  0  0  0  0  0  0  0  0  0  0
  -15.4603   22.4459   74.3660 C   0  0  0  0  0  0  0  0  0  0  0  0
  -18.9091   20.7533   70.6990 C   0  0  0  0  0  0  0  0  0  0  0  0
  -19.7905   20.5121   69.3766 C   0  0  0  0  0  0  0  0  0  0  0  0
  -21.2164   20.3479   70.0034 C   0  0  0  0  0  0  0  0  0  0  0  0
  -17.0522   20.9241   72.9908 O   0  0  0  0  0  0  0  0  0  0  0  0
  -19.8974   19.3655   68.4850 O   0  0  0  0  0  0  0  0  0  0  0  0
  -17.2173   20.7613   68.9337 C   0  0  0  0  0  0  0  0  0  0  0  0
  -16.8619   21.7433   66.1512 O   0  0  0  0  0  0  0  0  0  0  0  0
  -17.6922   23.2319   68.9145 O   0  0  0  0  0  0  0  0  0  0  0  0
  -18.1532   19.2027   74.3736 C   0  0  0  0  0  0  0  0  0  0  0  0
  -15.8737   21.5272   72.1862 C   0  0  0  0  0  0  0  0  0  0  0  0
  -18.0674   16.9985   75.1817 O   0  0  0  0  0  0  0  0  0  0  0  0
  -15.9804   20.6235   68.1547 C   0  0  0  0  0  0  0  0  0  0  0  0
  -15.8618   19.3558   74.8720 O   0  0  0  0  0  0  0  0  0  0  0  0
  -18.0409   17.7200   74.1361 C   0  0  0  0  0  0  0  0  0  0  0  0
  -13.4510   22.1580   72.9841 C   0  0  0  0  0  0  0  0  0  0  0  0
  -12.7781   21.4200   71.9600 O   0  0  0  0  0  0  0  0  0  0  0  0
  -17.8622   21.9301   68.2750 C   0  0  0  0  0  0  0  0  0  0  0  0
  -19.4226   21.6801   68.3707 C   0  0  0  0  0  0  0  0  0  0  0  0
  -16.4493   22.0163   67.3562 C   0  0  0  0  0  0  0  0  0  0  0  0
  -18.1497   17.3528   72.9549 O   0  0  0  0  0  0  0  0  0  0  0  0
  1  2  1  0
  1  7  1  0
  1 12  1  0
  2 16  1  0
  3 18  1  0
  4 10  1  0
  4 15  1  0
  4 19  2  0
  5  6  1  0
  5 16  1  0
  5 21  1  0
  7  8  1  0
  8  9  1  0
  8 11  1  0
  8 24  1  0
 10 16  1  0
 12 18  1  0
 12 23  1  0
 13 25  1  0
 14 23  1  0
 15 20  1  0
 17 20  2  0
 18 25  1  0
 20 26  1  0
 21 22  1  0
 23 24  1  0
 23 25  1  0
M  END
>  <ID>  (1) 
conformer_0

$$$$
