
     RDKit          3D

 27 29  0  0  0  0  0  0  0  0999 V2000
  -20.4614   19.0467   68.3706 O   0  0  0  0  0  0  0  0  0  0  0  0
  -15.4597   22.1220   67.1528 C   0  0  0  0  0  0  0  0  0  0  0  0
  -21.7139   19.7950   70.1082 O   0  0  0  0  0  0  0  0  0  0  0  0
  -20.6951   19.8250   69.3539 C   0  0  0  0  0  0  0  0  0  0  0  0
  -19.4732   20.5408   69.8499 C   0  0  0  0  0  0  0  0  0  0  0  0
  -18.9452   20.2028   71.2324 C   0  0  0  0  0  0  0  0  0  0  0  0
  -18.6565   17.1713   74.4094 O   0  0  0  0  0  0  0  0  0  0  0  0
  -17.7663   18.0042   74.7812 C   0  0  0  0  0  0  0  0  0  0  0  0
  -16.5566   20.1790   74.7220 C   0  0  0  0  0  0  0  0  0  0  0  0
  -16.4965   22.2455   68.1233 C   0  0  0  0  0  0  0  0  0  0  0  0
  -18.4017   20.8663   68.8486 C   0  0  0  0  0  0  0  0  0  0  0  0
  -16.0304   21.2671   73.6669 C   0  0  0  0  0  0  0  0  0  0  0  0
  -17.3719   23.4694   68.1213 C   0  0  0  0  0  0  0  0  0  0  0  0
  -16.6453   17.7138   75.3069 O   0  0  0  0  0  0  0  0  0  0  0  0
  -16.5196   20.8337   70.5665 C   0  0  0  0  0  0  0  0  0  0  0  0
  -14.9187   21.3466   72.5853 C   0  0  0  0  0  0  0  0  0  0  0  0
  -17.4429   20.4646   71.7252 C   0  0  0  0  0  0  0  0  0  0  0  0
  -16.9167   21.2493   69.1621 C   0  0  0  0  0  0  0  0  0  0  0  0
  -14.3656   21.4751   67.5225 O   0  0  0  0  0  0  0  0  0  0  0  0
  -17.2710   19.2598   72.6719 O   0  0  0  0  0  0  0  0  0  0  0  0
  -17.7485   19.3561   74.0741 C   0  0  0  0  0  0  0  0  0  0  0  0
  -13.7443   22.2640   72.9479 C   0  0  0  0  0  0  0  0  0  0  0  0
  -15.5767   22.2092   74.6847 O   0  0  0  0  0  0  0  0  0  0  0  0
  -15.6056   22.7417   66.0650 O   0  0  0  0  0  0  0  0  0  0  0  0
  -15.1883   21.4128   71.0896 C   0  0  0  0  0  0  0  0  0  0  0  0
  -17.3286   21.5957   72.8389 C   0  0  0  0  0  0  0  0  0  0  0  0
  -12.6288   21.6594   72.2063 N   0  0  0  0  0  0  0  0  0  0  0  0
  1  4  2  0
  2 10  1  0
  2 19  2  0
  2 24  1  0
  3  4  1  0
  4  5  1  0
  5  6  1  0
  5 11  1  0
  6 17  1  0
  7  8  2  0
  8 14  1  0
  8 21  1  0
  9 12  1  0
  9 21  1  0
 10 13  1  0
 10 18  1  0
 11 18  1  0
 12 16  1  0
 12 23  1  0
 12 26  1  0
 15 17  1  0
 15 18  1  0
 15 25  2  0
 16 22  1  0
 16 25  1  0
 17 20  1  0
 17 26  1  0
 20 21  1  0
 22 27  1  0
M  END
>  <ID>  (1) 
conformer_0

$$$$
