
     RDKit          3D

 30 31  0  0  0  0  0  0  0  0999 V2000
  -18.4325   17.7239   75.0719 C   0  0  0  0  0  0  0  0  0  0  0  0
  -15.6626   22.9422   67.1114 C   0  0  0  0  0  0  0  0  0  0  0  0
  -15.4293   22.4817   73.3554 C   0  0  0  0  0  0  0  0  0  0  0  0
  -16.2599   20.0814   71.4827 C   0  0  0  0  0  0  0  0  0  0  0  0
  -14.6532   23.6504   73.7514 C   0  0  0  0  0  0  0  0  0  0  0  0
  -14.6514   23.0437   68.0937 C   0  0  0  0  0  0  0  0  0  0  0  0
  -16.2901   20.2937   73.9596 C   0  0  0  0  0  0  0  0  0  0  0  0
  -15.7994   22.3401   72.0874 C   0  0  0  0  0  0  0  0  0  0  0  0
  -15.6683   18.8696   70.3771 Cl  0  0  0  0  0  0  0  0  0  0  0  0
  -15.7496   21.4945   74.3767 C   0  0  0  0  0  0  0  0  0  0  0  0
  -20.1965   20.4338   70.2439 C   0  0  0  0  0  0  0  0  0  0  0  0
  -17.5747   21.1524   65.6576 O   0  0  0  0  0  0  0  0  0  0  0  0
  -16.8909   22.4083   67.4612 C   0  0  0  0  0  0  0  0  0  0  0  0
  -16.6039   19.6364   72.7948 C   0  0  0  0  0  0  0  0  0  0  0  0
  -14.9090   22.5579   69.3141 C   0  0  0  0  0  0  0  0  0  0  0  0
  -18.5595   21.4235   68.9063 C   0  0  0  0  0  0  0  0  0  0  0  0
  -16.1440   17.7469   75.2619 O   0  0  0  0  0  0  0  0  0  0  0  0
  -17.3670   18.3227   72.9576 C   0  0  0  0  0  0  0  0  0  0  0  0
  -16.1393   21.9777   69.6891 C   0  0  0  0  0  0  0  0  0  0  0  0
  -17.1368   17.9231   74.3595 C   0  0  0  0  0  0  0  0  0  0  0  0
  -20.1934   19.5285   69.1363 N   0  0  0  0  0  0  0  0  0  0  0  0
  -17.1889   21.9093   68.7274 C   0  0  0  0  0  0  0  0  0  0  0  0
  -12.5837   24.1363   74.0965 O   0  0  0  0  0  0  0  0  0  0  0  0
  -13.2811   24.5413   71.8666 C   0  0  0  0  0  0  0  0  0  0  0  0
  -18.4856   16.3662   75.3787 O   0  0  0  0  0  0  0  0  0  0  0  0
  -17.8954   22.3379   66.3960 C   0  0  0  0  0  0  0  0  0  0  0  0
  -12.8320   22.2424   72.5466 C   0  0  0  0  0  0  0  0  0  0  0  0
  -13.3119   23.5902   73.0241 C   0  0  0  0  0  0  0  0  0  0  0  0
  -19.0827   21.3896   70.2725 O   0  0  0  0  0  0  0  0  0  0  0  0
  -16.1174   21.4744   71.0896 C   0  0  0  0  0  0  0  0  0  0  0  0
  1 20  1  0
  1 25  1  0
  2  6  2  0
  2 13  1  0
  3  5  1  0
  3  8  1  0
  3 10  2  0
  4  9  1  0
  4 14  1  0
  4 30  1  0
  5 28  1  0
  6 15  1  0
  7 10  1  0
  7 14  2  0
  8 30  2  0
 11 21  1  0
 11 29  1  0
 12 26  1  0
 13 22  2  0
 13 26  1  0
 14 18  1  0
 15 19  2  0
 16 22  1  0
 16 29  1  0
 17 20  1  0
 18 20  1  0
 19 22  1  0
 19 30  1  0
 23 28  1  0
 24 28  1  0
 27 28  1  0
M  END
>  <ID>  (1) 
conformer_0

$$$$
