
     RDKit          3D

 34 37  0  0  0  0  0  0  0  0999 V2000
  -18.2502   17.3094   74.8021 C   0  0  0  0  0  0  0  0  0  0  0  0
  -16.2623   21.0779   75.7860 O   0  0  0  0  0  0  0  0  0  0  0  0
  -17.1658   20.5185   72.5795 C   0  0  0  0  0  0  0  0  0  0  0  0
  -16.0328   18.3829   75.4274 O   0  0  0  0  0  0  0  0  0  0  0  0
  -19.0804   21.6813   69.7215 C   0  0  0  0  0  0  0  0  0  0  0  0
  -16.6870   19.1997   74.4761 C   0  0  0  0  0  0  0  0  0  0  0  0
  -15.9764   22.8415   67.1153 C   0  0  0  0  0  0  0  0  0  0  0  0
  -14.8845   23.1661   73.9528 C   0  0  0  0  0  0  0  0  0  0  0  0
  -15.6303   19.7962   70.1016 O   0  0  0  0  0  0  0  0  0  0  0  0
  -16.9627   23.7557   67.4381 C   0  0  0  0  0  0  0  0  0  0  0  0
  -20.7087   19.5607   69.9002 O   0  0  0  0  0  0  0  0  0  0  0  0
  -22.4505   20.7305   68.7665 C   0  0  0  0  0  0  0  0  0  0  0  0
  -18.2615   18.7637   74.1724 C   0  0  0  0  0  0  0  0  0  0  0  0
  -14.0975   24.2538   73.6390 C   0  0  0  0  0  0  0  0  0  0  0  0
  -15.8768   20.4745   74.5613 N   0  0  0  0  0  0  0  0  0  0  0  0
  -13.0469   23.4300   70.1268 C   0  0  0  0  0  0  0  0  0  0  0  0
  -21.2133   20.6660   69.4634 C   0  0  0  0  0  0  0  0  0  0  0  0
  -16.8178   21.3909   68.8921 C   0  0  0  0  0  0  0  0  0  0  0  0
  -13.6611   23.3066   71.4655 C   0  0  0  0  0  0  0  0  0  0  0  0
  -17.9542   22.1746   68.9460 C   0  0  0  0  0  0  0  0  0  0  0  0
  -20.3011   21.6686   69.1713 O   0  0  0  0  0  0  0  0  0  0  0  0
  -16.1490   21.2004   73.3289 C   0  0  0  0  0  0  0  0  0  0  0  0
  -16.6967   20.5208   70.0603 C   0  0  0  0  0  0  0  0  0  0  0  0
  -15.1136   22.1776   73.0221 C   0  0  0  0  0  0  0  0  0  0  0  0
  -17.2852   19.1515   73.0987 C   0  0  0  0  0  0  0  0  0  0  0  0
  -18.9647   16.4206   73.8802 O   0  0  0  0  0  0  0  0  0  0  0  0
  -16.9192   18.1922   72.2379 O   0  0  0  0  0  0  0  0  0  0  0  0
  -17.4434   20.8351   71.2158 N   0  0  0  0  0  0  0  0  0  0  0  0
  -13.4910   24.2938   72.4056 N   0  0  0  0  0  0  0  0  0  0  0  0
  -14.4047   22.2061   71.8219 C   0  0  0  0  0  0  0  0  0  0  0  0
  -15.8958   21.6287   67.8896 C   0  0  0  0  0  0  0  0  0  0  0  0
  -18.7670   21.4935   71.0908 C   0  0  0  0  0  0  0  0  0  0  0  0
  -19.6003   18.8489   73.4372 O   0  0  0  0  0  0  0  0  0  0  0  0
  -17.9412   23.4040   68.3369 C   0  0  0  0  0  0  0  0  0  0  0  0
  1 13  1  0
  1 26  1  0
  2 15  1  0
  3 22  1  0
  3 25  1  0
  3 28  1  0
  4  6  2  0
  5 20  1  0
  5 21  1  0
  5 32  1  0
  6 15  1  0
  6 25  1  0
  7 10  2  0
  7 31  1  0
  8 14  2  0
  8 24  1  0
  9 23  2  0
 10 34  1  0
 11 17  2  0
 12 17  1  0
 13 25  1  0
 13 33  1  0
 14 29  1  0
 15 22  1  0
 16 19  1  0
 17 21  1  0
 18 20  1  0
 18 23  1  0
 18 31  1  0
 19 29  2  0
 19 30  1  0
 20 34  2  0
 22 24  1  0
 23 28  1  0
 24 30  2  0
 25 27  1  0
 28 32  1  0
M  END
>  <ID>  (1) 
conformer_0

$$$$
