
     RDKit          3D

 35 39  0  0  0  0  0  0  0  0999 V2000
  -17.5051   21.7756   75.0875 C   0  0  0  0  0  0  0  0  0  0  0  0
  -16.0040   22.6861   67.1089 C   0  0  0  0  0  0  0  0  0  0  0  0
  -18.9802   16.3337   73.9722 O   0  0  0  0  0  0  0  0  0  0  0  0
  -13.6495   21.9811   67.0998 O   0  0  0  0  0  0  0  0  0  0  0  0
  -13.7995   23.2977   70.3752 C   0  0  0  0  0  0  0  0  0  0  0  0
  -19.3255   22.6240   69.1905 C   0  0  0  0  0  0  0  0  0  0  0  0
  -14.5279   23.3916   71.6127 C   0  0  0  0  0  0  0  0  0  0  0  0
  -17.1906   17.4257   75.0213 C   0  0  0  0  0  0  0  0  0  0  0  0
  -17.7164   19.0186   72.8778 C   0  0  0  0  0  0  0  0  0  0  0  0
  -17.9671   19.4282   71.4037 C   0  0  0  0  0  0  0  0  0  0  0  0
  -15.3209   21.2344   72.0932 C   0  0  0  0  0  0  0  0  0  0  0  0
  -14.6281   22.4882   72.7467 N   0  0  0  0  0  0  0  0  0  0  0  0
  -12.6431   23.9444   70.3983 O   0  0  0  0  0  0  0  0  0  0  0  0
  -20.6914   20.5600   69.3042 C   0  0  0  0  0  0  0  0  0  0  0  0
  -15.2881   20.4763   68.1877 C   0  0  0  0  0  0  0  0  0  0  0  0
  -13.9623   24.1539   68.1133 O   0  0  0  0  0  0  0  0  0  0  0  0
  -13.4165   23.4793   66.8971 C   0  0  0  0  0  0  0  0  0  0  0  0
  -14.1528   23.2643   73.9346 C   0  0  0  0  0  0  0  0  0  0  0  0
  -18.8000   20.7581   71.0447 C   0  0  0  0  0  0  0  0  0  0  0  0
  -18.6413   20.7887   67.6906 C   0  0  0  0  0  0  0  0  0  0  0  0
  -19.7089   21.4427   70.0628 C   0  0  0  0  0  0  0  0  0  0  0  0
  -14.4304   23.0882   69.0193 C   0  0  0  0  0  0  0  0  0  0  0  0
  -19.0220   18.5923   73.5558 C   0  0  0  0  0  0  0  0  0  0  0  0
  -16.7672   19.4925   73.9374 C   0  0  0  0  0  0  0  0  0  0  0  0
  -18.4685   22.2719   67.9600 C   0  0  0  0  0  0  0  0  0  0  0  0
  -12.7475   23.0600   73.8571 O   0  0  0  0  0  0  0  0  0  0  0  0
  -16.7189   20.9493   74.0431 C   0  0  0  0  0  0  0  0  0  0  0  0
  -14.8588   21.9785   68.0088 C   0  0  0  0  0  0  0  0  0  0  0  0
  -16.7871   21.5253   72.6145 C   0  0  0  0  0  0  0  0  0  0  0  0
  -15.5723   19.4713   75.9698 N   0  0  0  0  0  0  0  0  0  0  0  0
  -17.1454   23.0826   68.0768 C   0  0  0  0  0  0  0  0  0  0  0  0
  -20.1028   20.3018   67.9112 C   0  0  0  0  0  0  0  0  0  0  0  0
  -18.6433   17.5579   74.5785 N   0  0  0  0  0  0  0  0  0  0  0  0
  -16.4881   18.7760   75.1754 C   0  0  0  0  0  0  0  0  0  0  0  0
  -18.2448   21.8100   72.1212 C   0  0  0  0  0  0  0  0  0  0  0  0
  1 27  1  0
  2 28  1  0
  2 31  1  0
  3 33  1  0
  4 17  1  0
  4 28  1  0
  5  7  1  0
  5 13  1  0
  5 22  1  0
  6 21  1  0
  6 25  1  0
  7 12  1  0
  8 33  1  0
  8 34  1  0
  9 10  1  0
  9 23  1  0
  9 24  1  0
 10 19  1  0
 11 12  1  0
 11 29  1  0
 12 18  1  0
 14 21  1  0
 14 32  1  0
 15 28  1  0
 16 17  1  0
 16 22  1  0
 18 26  1  0
 19 21  1  0
 19 35  1  0
 20 25  1  0
 20 32  1  0
 22 28  1  0
 23 33  1  0
 24 27  1  0
 24 34  1  0
 25 31  1  0
 27 29  1  0
 29 35  1  0
 30 34  1  0
M  END
>  <ID>  (1) 
conformer_0

$$$$
