
     RDKit          3D

 27 30  0  0  0  0  0  0  0  0999 V2000
  -17.2781   21.6071   67.4857 C   0  0  0  0  0  0  0  0  0  0  0  0
  -18.6769   21.1498   68.4105 C   0  0  0  0  0  0  0  0  0  0  0  0
  -13.3526   24.1690   70.7790 N   0  0  0  0  0  0  0  0  0  0  0  0
  -16.6480   20.0513   75.5738 O   0  0  0  0  0  0  0  0  0  0  0  0
  -13.0867   25.0959   71.7799 C   0  0  0  0  0  0  0  0  0  0  0  0
  -21.8990   19.3340   70.1433 N   0  0  0  0  0  0  0  0  0  0  0  0
  -17.4191   20.1540   71.9536 C   0  0  0  0  0  0  0  0  0  0  0  0
  -17.4291   17.5822   74.5638 N   0  0  0  0  0  0  0  0  0  0  0  0
  -15.8719   21.4277   73.8604 C   0  0  0  0  0  0  0  0  0  0  0  0
  -14.8039   22.9091   72.2410 C   0  0  0  0  0  0  0  0  0  0  0  0
  -13.6912   24.9246   73.0377 C   0  0  0  0  0  0  0  0  0  0  0  0
  -20.2095   20.6667   68.9470 C   0  0  0  0  0  0  0  0  0  0  0  0
  -16.6234   20.3655   74.2592 C   0  0  0  0  0  0  0  0  0  0  0  0
  -19.2078   18.0031   73.1966 N   0  0  0  0  0  0  0  0  0  0  0  0
  -17.3966   19.6272   73.2488 C   0  0  0  0  0  0  0  0  0  0  0  0
  -14.9128   20.9218   67.8168 O   0  0  0  0  0  0  0  0  0  0  0  0
  -17.9037   20.6291   69.7197 C   0  0  0  0  0  0  0  0  0  0  0  0
  -14.5034   23.8382   73.2747 C   0  0  0  0  0  0  0  0  0  0  0  0
  -18.3317   19.9449   70.8628 C   0  0  0  0  0  0  0  0  0  0  0  0
  -16.4094   21.0924   71.4888 C   0  0  0  0  0  0  0  0  0  0  0  0
  -18.0510   18.3748   73.6411 C   0  0  0  0  0  0  0  0  0  0  0  0
  -15.6942   21.8126   72.5076 C   0  0  0  0  0  0  0  0  0  0  0  0
  -16.5082   21.1263   69.9105 C   0  0  0  0  0  0  0  0  0  0  0  0
  -16.0071   21.2606   68.3981 C   0  0  0  0  0  0  0  0  0  0  0  0
  -14.1652   23.1205   71.0270 C   0  0  0  0  0  0  0  0  0  0  0  0
  -20.5614   19.5449   68.0639 C   0  0  0  0  0  0  0  0  0  0  0  0
  -20.8783   20.3776   70.3334 C   0  0  0  0  0  0  0  0  0  0  0  0
  1  2  1  0
  1 24  1  0
  2 12  1  0
  2 17  1  0
  3  5  1  0
  3 25  2  0
  4 13  1  0
  5 11  1  0
  6 27  1  0
  7 15  1  0
  7 19  1  0
  7 20  1  0
  8 21  2  0
  9 13  2  0
  9 22  1  0
 10 18  1  0
 10 22  1  0
 10 25  1  0
 11 18  2  0
 12 26  1  0
 12 27  1  0
 13 15  1  0
 14 21  1  0
 15 21  1  0
 16 24  2  0
 17 19  1  0
 17 23  1  0
 20 22  2  0
 20 23  1  0
 23 24  1  0
M  END
>  <ID>  (1) 
conformer_0

$$$$
