
     RDKit          3D

 34 37  0  0  0  0  0  0  0  0999 V2000
  -16.3522   21.7143   74.1729 C   0  0  0  0  0  0  0  0  0  0  0  0
  -18.5192   20.6132   72.9461 C   0  0  0  0  0  0  0  0  0  0  0  0
  -15.0512   21.6304   67.7455 C   0  0  0  0  0  0  0  0  0  0  0  0
  -18.4941   21.9873   73.1146 C   0  0  0  0  0  0  0  0  0  0  0  0
  -20.7315   20.3620   69.1528 C   0  0  0  0  0  0  0  0  0  0  0  0
  -14.0088   23.4642   71.0823 C   0  0  0  0  0  0  0  0  0  0  0  0
  -13.1215   24.9039   72.7172 C   0  0  0  0  0  0  0  0  0  0  0  0
  -18.6737   20.6807   70.5836 N   0  0  0  0  0  0  0  0  0  0  0  0
  -17.5442   17.3098   74.8989 C   0  0  0  0  0  0  0  0  0  0  0  0
  -15.0789   22.3198   74.4669 N   0  0  0  0  0  0  0  0  0  0  0  0
  -18.1849   18.4835   74.2144 C   0  0  0  0  0  0  0  0  0  0  0  0
  -21.6870   19.5007   69.6528 O   0  0  0  0  0  0  0  0  0  0  0  0
  -16.5246   20.3649   74.2644 C   0  0  0  0  0  0  0  0  0  0  0  0
  -19.4341   18.6613   74.9349 N   0  0  0  0  0  0  0  0  0  0  0  0
  -18.6427   20.8739   68.1790 C   0  0  0  0  0  0  0  0  0  0  0  0
  -17.4239   21.5820   68.2498 C   0  0  0  0  0  0  0  0  0  0  0  0
  -17.7182   19.7910   73.7779 C   0  0  0  0  0  0  0  0  0  0  0  0
  -17.3802   22.5402   73.7327 C   0  0  0  0  0  0  0  0  0  0  0  0
  -18.4079   16.3734   75.0531 O   0  0  0  0  0  0  0  0  0  0  0  0
  -19.5879   20.9924   67.1379 C   0  0  0  0  0  0  0  0  0  0  0  0
  -14.6428   22.6752   72.0516 C   0  0  0  0  0  0  0  0  0  0  0  0
  -14.4981   23.0381   73.4034 C   0  0  0  0  0  0  0  0  0  0  0  0
  -16.0536   23.5474   68.7593 C   0  0  0  0  0  0  0  0  0  0  0  0
  -20.9085   20.4444   67.6564 C   0  0  0  0  0  0  0  0  0  0  0  0
  -16.2832   20.9698   67.7063 C   0  0  0  0  0  0  0  0  0  0  0  0
  -19.1956   20.1641   71.7332 C   0  0  0  0  0  0  0  0  0  0  0  0
  -13.7388   24.1294   73.7383 C   0  0  0  0  0  0  0  0  0  0  0  0
  -17.2771   22.9116   68.7852 C   0  0  0  0  0  0  0  0  0  0  0  0
  -19.2524   20.2289   69.3483 C   0  0  0  0  0  0  0  0  0  0  0  0
  -14.9297   22.9239   68.2408 C   0  0  0  0  0  0  0  0  0  0  0  0
  -13.2798   24.5830   71.4002 N   0  0  0  0  0  0  0  0  0  0  0  0
  -16.3220   17.4090   75.2850 O   0  0  0  0  0  0  0  0  0  0  0  0
  -20.1868   19.5570   71.7983 O   0  0  0  0  0  0  0  0  0  0  0  0
  -13.9514   20.9978   67.2989 O   0  0  0  0  0  0  0  0  0  0  0  0
  1 10  1  0
  1 13  2  0
  1 18  1  0
  2  4  1  0
  2 17  1  0
  2 26  1  0
  3 25  2  0
  3 30  1  0
  3 34  1  0
  4 18  2  0
  5 12  1  0
  5 24  1  0
  5 29  1  0
  6 21  2  0
  6 31  1  0
  7 27  1  0
  7 31  2  0
  8 26  1  0
  8 29  1  0
  9 11  1  0
  9 19  2  0
  9 32  1  0
 10 22  1  0
 11 14  1  0
 11 17  1  0
 13 17  1  0
 15 16  1  0
 15 20  1  0
 15 29  1  0
 16 25  1  0
 16 28  2  0
 20 24  1  0
 21 22  1  0
 22 27  2  0
 23 28  1  0
 23 30  2  0
 26 33  2  0
M  END
>  <ID>  (1) 
conformer_0

$$$$
