
     RDKit          3D

 38 42  0  0  0  0  0  0  0  0999 V2000
  -21.4966   22.7487   68.5564 C   0  0  0  0  0  0  0  0  0  0  0  0
  -17.8193   21.3710   68.3622 N   0  0  0  0  0  0  0  0  0  0  0  0
  -13.7782   24.6290   73.2148 C   0  0  0  0  0  0  0  0  0  0  0  0
  -13.2175   24.6916   71.9353 C   0  0  0  0  0  0  0  0  0  0  0  0
  -17.3972   17.2391   74.3452 C   0  0  0  0  0  0  0  0  0  0  0  0
  -19.2054   18.7670   72.9186 O   0  0  0  0  0  0  0  0  0  0  0  0
  -18.0359   20.7162   73.4427 C   0  0  0  0  0  0  0  0  0  0  0  0
  -19.4575   22.0568   70.0778 C   0  0  0  0  0  0  0  0  0  0  0  0
  -18.6496   16.7833   74.5112 O   0  0  0  0  0  0  0  0  0  0  0  0
  -16.1843   16.6932   74.0914 O   0  0  0  0  0  0  0  0  0  0  0  0
  -15.9899   20.3243   71.4934 C   0  0  0  0  0  0  0  0  0  0  0  0
  -16.8081   18.9476   75.8861 O   0  0  0  0  0  0  0  0  0  0  0  0
  -15.1700   22.0554   70.0922 C   0  0  0  0  0  0  0  0  0  0  0  0
  -20.6647   21.9741   67.5277 C   0  0  0  0  0  0  0  0  0  0  0  0
  -16.1431   19.2046   73.6166 C   0  0  0  0  0  0  0  0  0  0  0  0
  -20.8203   22.6924   69.9297 C   0  0  0  0  0  0  0  0  0  0  0  0
  -14.8994   19.6220   71.3863 O   0  0  0  0  0  0  0  0  0  0  0  0
  -19.0574   20.9075   69.0914 C   0  0  0  0  0  0  0  0  0  0  0  0
  -13.8365   22.8251   66.9489 C   0  0  0  0  0  0  0  0  0  0  0  0
  -17.2583   18.7279   74.5739 C   0  0  0  0  0  0  0  0  0  0  0  0
  -13.6674   23.8371   70.9418 C   0  0  0  0  0  0  0  0  0  0  0  0
  -18.0867   22.4074   67.3668 C   0  0  0  0  0  0  0  0  0  0  0  0
  -21.4970   21.6737   66.2501 C   0  0  0  0  0  0  0  0  0  0  0  0
  -16.3449   21.1888   70.3389 C   0  0  0  0  0  0  0  0  0  0  0  0
  -15.9916   22.6957   66.1370 O   0  0  0  0  0  0  0  0  0  0  0  0
  -15.3605   22.2026   67.2536 C   0  0  0  0  0  0  0  0  0  0  0  0
  -13.5795   22.7980   68.3820 C   0  0  0  0  0  0  0  0  0  0  0  0
  -15.0502   19.8325   74.2449 O   0  0  0  0  0  0  0  0  0  0  0  0
  -18.8057   19.5078   69.5836 O   0  0  0  0  0  0  0  0  0  0  0  0
  -20.2936   20.6583   68.1901 C   0  0  0  0  0  0  0  0  0  0  0  0
  -19.4755   22.7725   67.0554 C   0  0  0  0  0  0  0  0  0  0  0  0
  -15.1812   22.8545   72.4840 C   0  0  0  0  0  0  0  0  0  0  0  0
  -14.7253   23.6595   73.5090 C   0  0  0  0  0  0  0  0  0  0  0  0
  -14.8982   22.2308   68.6980 C   0  0  0  0  0  0  0  0  0  0  0  0
  -18.6064   19.3907   74.0907 C   0  0  0  0  0  0  0  0  0  0  0  0
  -16.6754   20.6270   68.9608 C   0  0  0  0  0  0  0  0  0  0  0  0
  -16.8044   20.2040   72.6879 C   0  0  0  0  0  0  0  0  0  0  0  0
  -14.7047   22.9042   71.1783 C   0  0  0  0  0  0  0  0  0  0  0  0
  1 14  1  0
  1 16  1  0
  2 18  1  0
  2 22  1  0
  2 36  1  0
  3  4  1  0
  3 33  1  0
  4 21  2  0
  5  9  2  0
  5 10  1  0
  5 20  1  0
  6 35  1  0
  7 35  1  0
  7 37  1  0
  8 16  1  0
  8 18  1  0
 11 17  1  0
 11 24  1  0
 11 37  2  3
 12 20  1  0
 13 24  1  0
 13 34  1  0
 13 38  2  3
 14 23  1  0
 14 30  1  0
 14 31  1  0
 15 20  1  0
 15 28  1  0
 15 37  1  0
 18 29  1  0
 18 30  1  0
 19 26  1  0
 19 27  1  0
 20 35  1  0
 21 38  1  0
 22 31  2  0
 24 36  1  0
 25 26  1  0
 26 34  1  0
 27 34  1  0
 32 33  2  0
 32 38  1  0
M  END
>  <ID>  (1) 
conformer_0

$$$$
