
     RDKit          3D

 27 29  0  0  0  0  0  0  0  0999 V2000
  -17.2482   18.2890   73.8914 C   0  0  0  0  0  0  0  0  0  0  0  0
  -14.7323   21.1068   73.7958 N   0  0  0  0  0  0  0  0  0  0  0  0
  -18.0959   21.6352   69.5259 C   0  0  0  0  0  0  0  0  0  0  0  0
  -19.8786   21.5751   71.2998 C   0  0  0  0  0  0  0  0  0  0  0  0
  -13.0531   22.6321   72.6376 C   0  0  0  0  0  0  0  0  0  0  0  0
  -20.1408   22.6260   68.7585 C   0  0  0  0  0  0  0  0  0  0  0  0
  -18.9981   20.3495   67.7193 C   0  0  0  0  0  0  0  0  0  0  0  0
  -13.3418   23.6413   73.7505 C   0  0  0  0  0  0  0  0  0  0  0  0
  -16.7302   21.5138   67.4318 C   0  0  0  0  0  0  0  0  0  0  0  0
  -18.9815   22.8685   67.6983 C   0  0  0  0  0  0  0  0  0  0  0  0
  -18.7739   17.8270   74.0315 C   0  0  0  0  0  0  0  0  0  0  0  0
  -16.8054   21.9217   70.0728 C   0  0  0  0  0  0  0  0  0  0  0  0
  -16.4608   21.3963   71.4514 C   0  0  0  0  0  0  0  0  0  0  0  0
  -16.5208   17.1304   74.3618 O   0  0  0  0  0  0  0  0  0  0  0  0
  -15.8618   21.7980   74.3054 C   0  0  0  0  0  0  0  0  0  0  0  0
  -18.1299   21.5956   68.0159 C   0  0  0  0  0  0  0  0  0  0  0  0
  -15.6054   19.3191   75.6450 O   0  0  0  0  0  0  0  0  0  0  0  0
  -16.5596   20.1292   66.9759 O   0  0  0  0  0  0  0  0  0  0  0  0
  -19.4075   22.0702   69.9772 C   0  0  0  0  0  0  0  0  0  0  0  0
  -14.2351   21.6603   72.5079 C   0  0  0  0  0  0  0  0  0  0  0  0
  -16.5430   20.2112   72.3711 C   0  0  0  0  0  0  0  0  0  0  0  0
  -15.4129   22.3824   71.8653 C   0  0  0  0  0  0  0  0  0  0  0  0
  -16.0368   20.5390   73.7176 C   0  0  0  0  0  0  0  0  0  0  0  0
  -17.2485   18.8522   72.4011 C   0  0  0  0  0  0  0  0  0  0  0  0
  -17.8376   20.1999   75.2820 O   0  0  0  0  0  0  0  0  0  0  0  0
  -16.7034   19.5349   74.7549 C   0  0  0  0  0  0  0  0  0  0  0  0
  -18.8569   16.4022   73.9624 O   0  0  0  0  0  0  0  0  0  0  0  0
  1 11  1  0
  1 14  1  0
  1 24  1  0
  1 26  1  0
  2 15  1  0
  2 20  1  0
  3 12  1  0
  3 16  1  0
  3 19  1  0
  4 19  1  0
  5  8  1  0
  5 20  1  0
  6 10  1  0
  6 19  1  0
  7 16  1  0
  9 16  1  0
  9 18  1  0
 10 16  1  0
 11 27  1  0
 12 13  1  0
 13 21  1  0
 13 22  1  0
 15 23  1  0
 17 26  1  0
 20 22  1  0
 21 23  1  0
 21 24  1  0
 23 26  1  0
 25 26  1  0
M  END
>  <ID>  (1) 
conformer_0

$$$$
