
     RDKit          3D

 23 23  0  0  0  0  0  0  0  0999 V2000
  -15.7432   19.2606   75.3107 O   0  0  0  0  0  0  0  0  0  0  0  0
  -18.0612   17.1935   75.1257 C   0  0  0  0  0  0  0  0  0  0  0  0
  -17.7336   19.4963   72.1566 O   0  0  0  0  0  0  0  0  0  0  0  0
  -15.1054   21.1781   67.6042 C   0  0  0  0  0  0  0  0  0  0  0  0
  -19.5235   21.1306   67.9573 C   0  0  0  0  0  0  0  0  0  0  0  0
  -18.6825   21.3185   69.1444 C   0  0  0  0  0  0  0  0  0  0  0  0
  -18.8511   16.9091   73.9335 O   0  0  0  0  0  0  0  0  0  0  0  0
  -13.6521   21.9733   73.4747 O   0  0  0  0  0  0  0  0  0  0  0  0
  -16.5710   20.5273   69.8473 C   0  0  0  0  0  0  0  0  0  0  0  0
  -15.5902   19.6833   69.8274 O   0  0  0  0  0  0  0  0  0  0  0  0
  -16.5652   19.6575   74.2762 C   0  0  0  0  0  0  0  0  0  0  0  0
  -16.5388   21.5470   67.6154 C   0  0  0  0  0  0  0  0  0  0  0  0
  -17.2320   20.5551   71.2385 C   0  0  0  0  0  0  0  0  0  0  0  0
  -17.0648   22.0481   66.6170 O   0  0  0  0  0  0  0  0  0  0  0  0
  -14.8372   22.8825   73.4722 C   0  0  0  0  0  0  0  0  0  0  0  0
  -17.5376   22.1900   74.0766 O   0  0  0  0  0  0  0  0  0  0  0  0
  -15.8537   20.6995   73.3618 C   0  0  0  0  0  0  0  0  0  0  0  0
  -16.1945   21.2049   72.0329 O   0  0  0  0  0  0  0  0  0  0  0  0
  -17.6321   17.4796   73.6077 C   0  0  0  0  0  0  0  0  0  0  0  0
  -15.9965   22.0959   74.1826 C   0  0  0  0  0  0  0  0  0  0  0  0
  -17.7651   18.9894   73.5394 C   0  0  0  0  0  0  0  0  0  0  0  0
  -17.2187   21.4597   68.9106 C   0  0  0  0  0  0  0  0  0  0  0  0
  -19.3108   22.3940   70.0089 C   0  0  0  0  0  0  0  0  0  0  0  0
  1 11  1  0
  2  7  1  0
  3 13  1  0
  3 21  1  0
  4 12  1  0
  5  6  1  0
  6 22  1  0
  6 23  1  0
  7 19  1  0
  8 15  1  0
  9 10  1  0
  9 13  1  0
  9 22  1  0
 11 17  1  0
 11 21  1  0
 12 14  2  0
 12 22  1  0
 13 18  1  0
 15 20  1  0
 16 20  1  0
 17 18  1  0
 17 20  1  0
 19 21  1  0
M  END
>  <ID>  (1) 
conformer_0

$$$$
