
     RDKit          3D

 30 34  0  0  0  0  0  0  0  0999 V2000
  -14.9556   20.5718   67.6697 O   0  0  0  0  0  0  0  0  0  0  0  0
  -19.4644   21.5480   68.7557 C   0  0  0  0  0  0  0  0  0  0  0  0
  -18.8363   19.5724   72.0753 C   0  0  0  0  0  0  0  0  0  0  0  0
  -16.7879   20.4132   73.0424 O   0  0  0  0  0  0  0  0  0  0  0  0
  -15.4742   22.1378   74.4892 C   0  0  0  0  0  0  0  0  0  0  0  0
  -12.2790   23.3300   71.1928 C   0  0  0  0  0  0  0  0  0  0  0  0
  -17.2443   21.1764   67.8882 C   0  0  0  0  0  0  0  0  0  0  0  0
  -16.7503   21.5896   75.0629 C   0  0  0  0  0  0  0  0  0  0  0  0
  -16.5564   21.3014   76.4151 O   0  0  0  0  0  0  0  0  0  0  0  0
  -18.1277   21.2305   68.9215 C   0  0  0  0  0  0  0  0  0  0  0  0
  -19.0138   21.8083   66.4160 C   0  0  0  0  0  0  0  0  0  0  0  0
  -15.9237   20.8645   68.3521 C   0  0  0  0  0  0  0  0  0  0  0  0
  -18.4302   21.0205   71.3801 C   0  0  0  0  0  0  0  0  0  0  0  0
  -18.9889   16.3777   74.0381 O   0  0  0  0  0  0  0  0  0  0  0  0
  -18.8278   18.6860   73.3772 C   0  0  0  0  0  0  0  0  0  0  0  0
  -17.4228   21.6057   72.4678 C   0  0  0  0  0  0  0  0  0  0  0  0
  -17.2250   20.3280   74.3597 C   0  0  0  0  0  0  0  0  0  0  0  0
  -18.2056   19.2396   74.7137 C   0  0  0  0  0  0  0  0  0  0  0  0
  -14.0108   22.4930   72.6287 N   0  0  0  0  0  0  0  0  0  0  0  0
  -19.9156   21.8616   67.4713 C   0  0  0  0  0  0  0  0  0  0  0  0
  -13.8111   24.7566   72.3659 O   0  0  0  0  0  0  0  0  0  0  0  0
  -16.3561   22.6289   72.1166 C   0  0  0  0  0  0  0  0  0  0  0  0
  -17.9801   17.3189   73.4823 C   0  0  0  0  0  0  0  0  0  0  0  0
  -13.3177   23.6147   72.1812 C   0  0  0  0  0  0  0  0  0  0  0  0
  -16.0265   20.8300   69.8579 C   0  0  0  0  0  0  0  0  0  0  0  0
  -17.3290   17.9067   74.9003 C   0  0  0  0  0  0  0  0  0  0  0  0
  -17.5061   20.9400   70.1678 C   0  0  0  0  0  0  0  0  0  0  0  0
  -16.0626   18.3645   75.4733 O   0  0  0  0  0  0  0  0  0  0  0  0
  -17.6799   21.4643   66.6065 C   0  0  0  0  0  0  0  0  0  0  0  0
  -15.3015   22.7463   73.1545 C   0  0  0  0  0  0  0  0  0  0  0  0
  1 12  2  0
  2 10  1  0
  2 20  2  0
  3 13  1  0
  3 15  1  0
  4 16  1  0
  4 17  1  0
  5  8  1  0
  5 30  1  0
  6 24  1  0
  7 10  2  0
  7 12  1  0
  7 29  1  0
  8  9  1  0
  8 17  1  0
 10 27  1  0
 11 20  1  0
 11 29  2  0
 12 25  1  0
 13 16  1  0
 13 27  1  0
 14 23  1  0
 15 18  1  0
 15 23  1  0
 16 22  1  0
 17 18  1  0
 18 26  1  0
 19 24  1  0
 19 30  1  0
 21 24  2  0
 22 30  1  0
 23 26  1  0
 25 27  1  0
 26 28  1  0
M  END
>  <ID>  (1) 
conformer_0

$$$$
