
     RDKit          3D

 23 24  0  0  0  0  0  0  0  0999 V2000
  -18.8221   20.6913   69.0195 C   0  0  0  0  0  0  0  0  0  0  0  0
  -17.0898   19.2446   72.5421 C   0  0  0  0  0  0  0  0  0  0  0  0
  -19.5497   18.4385   73.3855 O   0  0  0  0  0  0  0  0  0  0  0  0
  -17.4086   20.9994   68.7195 C   0  0  0  0  0  0  0  0  0  0  0  0
  -16.4349   21.3196   69.6652 C   0  0  0  0  0  0  0  0  0  0  0  0
  -17.2966   19.1511   75.0311 C   0  0  0  0  0  0  0  0  0  0  0  0
  -14.9804   23.1051   73.6395 C   0  0  0  0  0  0  0  0  0  0  0  0
  -16.9894   21.0965   67.4186 C   0  0  0  0  0  0  0  0  0  0  0  0
  -17.0888   19.6814   71.3194 N   0  0  0  0  0  0  0  0  0  0  0  0
  -16.5778   20.9442   71.0380 C   0  0  0  0  0  0  0  0  0  0  0  0
  -15.6512   20.6823   73.9573 C   0  0  0  0  0  0  0  0  0  0  0  0
  -17.6636   17.7174   74.9270 C   0  0  0  0  0  0  0  0  0  0  0  0
  -18.5023   17.3567   73.6878 C   0  0  0  0  0  0  0  0  0  0  0  0
  -14.8628   22.1001   68.0556 C   0  0  0  0  0  0  0  0  0  0  0  0
  -15.2407   21.9316   69.3284 C   0  0  0  0  0  0  0  0  0  0  0  0
  -16.4534   16.9605   75.1101 O   0  0  0  0  0  0  0  0  0  0  0  0
  -15.6097   21.8390   73.1655 N   0  0  0  0  0  0  0  0  0  0  0  0
  -14.7041   20.4685   74.8175 O   0  0  0  0  0  0  0  0  0  0  0  0
  -19.5963   21.3663   70.1800 C   0  0  0  0  0  0  0  0  0  0  0  0
  -16.6902   19.6951   73.7559 C   0  0  0  0  0  0  0  0  0  0  0  0
  -19.7105   20.0208   68.0754 C   0  0  0  0  0  0  0  0  0  0  0  0
  -15.7505   21.6555   67.0685 C   0  0  0  0  0  0  0  0  0  0  0  0
  -16.1297   21.8434   71.9571 C   0  0  0  0  0  0  0  0  0  0  0  0
  1  4  1  0
  1 19  1  0
  1 21  1  0
  2  9  2  0
  2 20  1  0
  3 13  1  0
  4  5  1  0
  4  8  2  0
  5 10  1  0
  5 15  1  0
  6 12  1  0
  6 20  1  0
  7 17  1  0
  8 22  1  0
  9 10  1  0
 10 23  1  0
 11 17  1  0
 11 18  2  0
 11 20  1  0
 12 13  1  0
 12 16  1  0
 14 15  2  0
 14 22  1  0
 17 23  1  0
M  END
>  <ID>  (1) 
conformer_0

$$$$
