
     RDKit          3D

 27 30  0  0  0  0  0  0  0  0999 V2000
  -18.7681   23.1282   67.7216 C   0  0  0  0  0  0  0  0  0  0  0  0
  -16.1614   20.6973   69.9477 C   0  0  0  0  0  0  0  0  0  0  0  0
  -20.3267   20.3540   69.8376 C   0  0  0  0  0  0  0  0  0  0  0  0
  -14.1463   22.8747   73.5126 C   0  0  0  0  0  0  0  0  0  0  0  0
  -16.2031   19.2965   74.7986 O   0  0  0  0  0  0  0  0  0  0  0  0
  -18.0225   20.8146   71.7926 C   0  0  0  0  0  0  0  0  0  0  0  0
  -20.5370   19.5891   68.4654 C   0  0  0  0  0  0  0  0  0  0  0  0
  -19.6787   21.6480   69.4515 N   0  0  0  0  0  0  0  0  0  0  0  0
  -20.0621   22.4401   68.1950 C   0  0  0  0  0  0  0  0  0  0  0  0
  -17.4601   21.0631   70.3879 C   0  0  0  0  0  0  0  0  0  0  0  0
  -18.3958   16.5260   75.0738 O   0  0  0  0  0  0  0  0  0  0  0  0
  -17.7777   17.6459   74.8496 C   0  0  0  0  0  0  0  0  0  0  0  0
  -17.7126   22.3513   68.3853 C   0  0  0  0  0  0  0  0  0  0  0  0
  -18.3829   24.1522   67.0472 N   0  0  0  0  0  0  0  0  0  0  0  0
  -16.3703   22.1257   68.0384 C   0  0  0  0  0  0  0  0  0  0  0  0
  -15.8104   21.5199   72.8273 C   0  0  0  0  0  0  0  0  0  0  0  0
  -14.2395   21.6391   72.5020 C   0  0  0  0  0  0  0  0  0  0  0  0
  -17.2192   20.8518   73.0471 C   0  0  0  0  0  0  0  0  0  0  0  0
  -17.2101   19.6676   73.9172 N   0  0  0  0  0  0  0  0  0  0  0  0
  -14.7404   20.4190   68.1111 F   0  0  0  0  0  0  0  0  0  0  0  0
  -15.6253   22.6170   73.8990 C   0  0  0  0  0  0  0  0  0  0  0  0
  -18.2662   21.6892   69.4482 C   0  0  0  0  0  0  0  0  0  0  0  0
  -15.7315   21.1189   68.7346 C   0  0  0  0  0  0  0  0  0  0  0  0
  -16.5772   18.0435   75.3878 N   0  0  0  0  0  0  0  0  0  0  0  0
  -18.2027   18.6423   73.9346 C   0  0  0  0  0  0  0  0  0  0  0  0
  -19.3085   18.6052   73.1635 O   0  0  0  0  0  0  0  0  0  0  0  0
  -15.7388   22.7975   67.0861 O   0  0  0  0  0  0  0  0  0  0  0  0
  1  9  1  0
  1 13  1  0
  1 14  2  0
  2 10  2  0
  2 23  1  0
  3  7  1  0
  3  8  1  0
  4 17  1  0
  4 21  1  0
  5 19  1  0
  5 24  1  0
  6 10  1  0
  6 18  1  0
  8  9  1  0
  8 22  1  0
 10 22  1  0
 11 12  2  0
 12 24  1  0
 12 25  1  0
 13 15  2  0
 13 22  1  0
 15 23  1  0
 15 27  1  0
 16 17  1  0
 16 18  1  0
 16 21  1  0
 18 19  1  0
 19 25  1  0
 20 23  1  0
 25 26  2  0
M  END
>  <ID>  (1) 
conformer_0

$$$$
