
     RDKit          3D

 28 29  0  0  0  0  0  0  0  0999 V2000
  -16.4345   20.9786   75.3260 O   0  0  0  0  0  0  0  0  0  0  0  0
  -18.8277   21.3590   69.2761 C   0  0  0  0  0  0  0  0  0  0  0  0
  -14.1441   21.9030   73.6803 N   0  0  0  0  0  0  0  0  0  0  0  0
  -17.4379   18.8760   71.1177 O   0  0  0  0  0  0  0  0  0  0  0  0
  -16.6271   21.6174   74.0519 C   0  0  0  0  0  0  0  0  0  0  0  0
  -17.2300   18.3884   74.5862 C   0  0  0  0  0  0  0  0  0  0  0  0
  -16.5467   20.9507   70.1804 C   0  0  0  0  0  0  0  0  0  0  0  0
  -18.4795   21.8833   67.9047 C   0  0  0  0  0  0  0  0  0  0  0  0
  -17.8489   21.6480   70.2833 O   0  0  0  0  0  0  0  0  0  0  0  0
  -16.9505   22.1481   67.8684 C   0  0  0  0  0  0  0  0  0  0  0  0
  -18.2157   16.5636   73.3515 O   0  0  0  0  0  0  0  0  0  0  0  0
  -20.7918   21.2455   67.4211 O   0  0  0  0  0  0  0  0  0  0  0  0
  -16.0692   18.3405   75.2476 O   0  0  0  0  0  0  0  0  0  0  0  0
  -16.0415   21.3253   68.7290 C   0  0  0  0  0  0  0  0  0  0  0  0
  -20.9793   20.3103   68.5393 C   0  0  0  0  0  0  0  0  0  0  0  0
  -18.0871   17.1569   74.6684 C   0  0  0  0  0  0  0  0  0  0  0  0
  -16.5209   22.5061   66.6545 O   0  0  0  0  0  0  0  0  0  0  0  0
  -17.7570   19.4994   73.7155 C   0  0  0  0  0  0  0  0  0  0  0  0
  -19.9005   22.3163   67.4284 C   0  0  0  0  0  0  0  0  0  0  0  0
  -19.1294   19.4007   73.5186 O   0  0  0  0  0  0  0  0  0  0  0  0
  -15.1559   19.3903   71.6165 C   0  0  0  0  0  0  0  0  0  0  0  0
  -17.0454   20.6000   72.9069 C   0  0  0  0  0  0  0  0  0  0  0  0
  -18.9676   23.3732   67.5701 C   0  0  0  0  0  0  0  0  0  0  0  0
  -15.0246   20.6924   67.8454 C   0  0  0  0  0  0  0  0  0  0  0  0
  -15.4786   22.5576   73.6650 C   0  0  0  0  0  0  0  0  0  0  0  0
  -20.1891   20.9163   69.7010 C   0  0  0  0  0  0  0  0  0  0  0  0
  -16.5387   19.9951   71.5161 C   0  0  0  0  0  0  0  0  0  0  0  0
  -20.3275   20.0126   70.8331 O   0  0  0  0  0  0  0  0  0  0  0  0
  1  5  1  0
  2  8  1  0
  2  9  1  0
  2 26  1  0
  3 25  1  0
  4 27  1  0
  5 22  1  0
  5 25  1  0
  6 13  1  0
  6 16  1  0
  6 18  1  0
  7  9  1  0
  7 14  1  0
  7 27  1  0
  8 10  1  0
  8 19  1  0
 10 14  1  0
 10 17  1  0
 11 16  1  0
 12 15  1  0
 12 19  1  0
 14 24  1  0
 15 26  1  0
 18 20  1  0
 18 22  1  0
 19 23  1  0
 21 27  1  0
 22 27  1  0
 26 28  1  0
M  END
>  <ID>  (1) 
conformer_0

$$$$
