
     RDKit          3D

 34 37  0  0  0  0  0  0  0  0999 V2000
  -16.1447   21.6937   69.5872 O   0  0  0  0  0  0  0  0  0  0  0  0
  -16.4277   17.0253   74.1250 O   0  0  0  0  0  0  0  0  0  0  0  0
  -18.5346   22.4980   70.1948 F   0  0  0  0  0  0  0  0  0  0  0  0
  -17.1417   22.7287   67.4542 C   0  0  0  0  0  0  0  0  0  0  0  0
  -16.1838   20.1983   75.5755 C   0  0  0  0  0  0  0  0  0  0  0  0
  -18.6678   21.1062   70.3349 C   0  0  0  0  0  0  0  0  0  0  0  0
  -16.7874   21.3102   72.0013 C   0  0  0  0  0  0  0  0  0  0  0  0
  -18.4614   20.4605   68.9985 C   0  0  0  0  0  0  0  0  0  0  0  0
  -17.3832   17.5724   73.5237 C   0  0  0  0  0  0  0  0  0  0  0  0
  -13.1386   23.1460   72.8022 C   0  0  0  0  0  0  0  0  0  0  0  0
  -15.5414   19.2299   76.0652 O   0  0  0  0  0  0  0  0  0  0  0  0
  -20.0261   20.9758   70.7445 F   0  0  0  0  0  0  0  0  0  0  0  0
  -20.6618   19.5856   68.5186 C   0  0  0  0  0  0  0  0  0  0  0  0
  -19.6248   20.5464   68.0809 C   0  0  0  0  0  0  0  0  0  0  0  0
  -17.4390   19.0002   73.4341 C   0  0  0  0  0  0  0  0  0  0  0  0
  -19.4929   21.6723   67.1251 C   0  0  0  0  0  0  0  0  0  0  0  0
  -16.6074   21.2708   76.1596 O   0  0  0  0  0  0  0  0  0  0  0  0
  -14.4146   22.5881   72.7132 N   0  0  0  0  0  0  0  0  0  0  0  0
  -15.8538   22.4312   68.3304 C   0  0  0  0  0  0  0  0  0  0  0  0
  -16.5490   19.9886   74.1185 C   0  0  0  0  0  0  0  0  0  0  0  0
  -16.0033   21.9566   70.9470 C   0  0  0  0  0  0  0  0  0  0  0  0
  -18.7244   16.3889   75.0249 N   0  0  0  0  0  0  0  0  0  0  0  0
  -18.7023   16.8859   73.6730 C   0  0  0  0  0  0  0  0  0  0  0  0
  -18.4807   19.5509   72.5718 C   0  0  0  0  0  0  0  0  0  0  0  0
  -17.8923   20.4780   71.5020 C   0  0  0  0  0  0  0  0  0  0  0  0
  -17.5763   20.9012   66.0510 O   0  0  0  0  0  0  0  0  0  0  0  0
  -16.4037   21.2685   73.3950 C   0  0  0  0  0  0  0  0  0  0  0  0
  -18.0668   21.8804   66.7300 C   0  0  0  0  0  0  0  0  0  0  0  0
  -12.7653   23.4858   71.4829 N   0  0  0  0  0  0  0  0  0  0  0  0
  -14.7742   22.5651   71.4048 C   0  0  0  0  0  0  0  0  0  0  0  0
  -15.1112   23.8081   68.2974 C   0  0  0  0  0  0  0  0  0  0  0  0
  -13.7818   23.1207   70.6974 C   0  0  0  0  0  0  0  0  0  0  0  0
  -14.8159   21.4954   67.5854 C   0  0  0  0  0  0  0  0  0  0  0  0
  -15.2239   22.0654   73.8559 C   0  0  0  0  0  0  0  0  0  0  0  0
  1 19  1  0
  1 21  1  0
  2  9  2  0
  3  6  1  0
  4 19  1  0
  4 28  1  0
  5 11  2  0
  5 17  1  0
  5 20  1  0
  6  8  1  0
  6 12  1  0
  6 25  1  0
  7 21  1  0
  7 25  1  0
  7 27  1  0
  8 14  1  0
  9 15  1  0
  9 23  1  0
 10 18  1  0
 10 29  1  0
 13 14  1  0
 14 16  1  0
 15 20  1  0
 15 24  1  0
 16 28  1  0
 18 30  1  0
 18 34  1  0
 19 31  1  0
 19 33  1  0
 20 27  1  0
 21 30  2  0
 22 23  1  0
 24 25  1  0
 26 28  1  0
 27 34  1  0
 29 32  1  0
 30 32  1  0
M  END
>  <ID>  (1) 
conformer_0

$$$$
