
     RDKit          3D

 25 26  0  0  0  0  0  0  0  0999 V2000
  -17.6767   19.4841   72.2008 C   0  0  0  0  0  0  0  0  0  0  0  0
  -14.9860   22.1339   72.3001 O   0  0  0  0  0  0  0  0  0  0  0  0
  -17.3259   21.3224   66.5274 O   0  0  0  0  0  0  0  0  0  0  0  0
  -18.0125   16.9538   74.7260 O   0  0  0  0  0  0  0  0  0  0  0  0
  -19.4888   18.0941   73.3963 N   0  0  0  0  0  0  0  0  0  0  0  0
  -16.6975   21.6094   70.5016 C   0  0  0  0  0  0  0  0  0  0  0  0
  -13.6075   24.0402   72.4909 C   0  0  0  0  0  0  0  0  0  0  0  0
  -16.7121   20.5211   69.2948 C   0  0  0  0  0  0  0  0  0  0  0  0
  -12.3800   22.7557   70.9366 O   0  0  0  0  0  0  0  0  0  0  0  0
  -14.0809   22.7733   73.2164 C   0  0  0  0  0  0  0  0  0  0  0  0
  -15.6526   19.3402   75.6241 N   0  0  0  0  0  0  0  0  0  0  0  0
  -15.7789   21.0133   72.7481 C   0  0  0  0  0  0  0  0  0  0  0  0
  -18.2864   17.7590   73.8184 C   0  0  0  0  0  0  0  0  0  0  0  0
  -18.3097   20.4910   69.0508 C   0  0  0  0  0  0  0  0  0  0  0  0
  -17.1505   18.6867   73.4078 C   0  0  0  0  0  0  0  0  0  0  0  0
  -18.5258   21.6879   67.0021 C   0  0  0  0  0  0  0  0  0  0  0  0
  -20.6728   20.8972   68.4818 C   0  0  0  0  0  0  0  0  0  0  0  0
  -16.3164   22.1023   74.9546 C   0  0  0  0  0  0  0  0  0  0  0  0
  -16.8521   20.6679   71.7394 C   0  0  0  0  0  0  0  0  0  0  0  0
  -19.8030   21.7015   67.6028 C   0  0  0  0  0  0  0  0  0  0  0  0
  -18.5039   21.9520   68.4342 C   0  0  0  0  0  0  0  0  0  0  0  0
  -16.6631   19.5838   74.5959 C   0  0  0  0  0  0  0  0  0  0  0  0
  -13.4026   23.7066   71.0304 C   0  0  0  0  0  0  0  0  0  0  0  0
  -16.3789   20.9818   74.0962 C   0  0  0  0  0  0  0  0  0  0  0  0
  -19.7676   20.2659   69.5674 C   0  0  0  0  0  0  0  0  0  0  0  0
  1 15  1  0
  1 19  2  0
  2 10  1  0
  2 12  1  0
  3 16  1  0
  4 13  2  0
  5 13  1  0
  6  8  1  0
  6 19  1  0
  7 10  1  0
  7 23  1  0
  8 14  1  0
  9 23  1  0
 11 22  1  0
 12 19  1  0
 12 24  1  0
 13 15  1  0
 14 21  1  0
 14 25  1  0
 15 22  1  0
 16 20  1  0
 16 21  1  0
 17 20  1  0
 17 25  1  0
 18 24  1  0
 22 24  1  0
M  END
>  <ID>  (1) 
conformer_0

$$$$
