
     RDKit          3D

 33 34  0  0  0  0  0  0  0  0999 V2000
  -15.8496   21.1383   74.5117 C   0  0  0  0  0  0  0  0  0  0  0  0
  -16.5838   19.9257   70.7084 C   0  0  0  0  0  0  0  0  0  0  0  0
  -14.7445   22.9035   71.4501 O   0  0  0  0  0  0  0  0  0  0  0  0
  -16.4100   21.7143   75.6887 O   0  0  0  0  0  0  0  0  0  0  0  0
  -16.5295   19.9365   74.0984 O   0  0  0  0  0  0  0  0  0  0  0  0
  -16.0507   22.1660   73.3480 C   0  0  0  0  0  0  0  0  0  0  0  0
  -18.6530   18.7265   74.3004 C   0  0  0  0  0  0  0  0  0  0  0  0
  -17.9925   20.0519   74.3193 C   0  0  0  0  0  0  0  0  0  0  0  0
  -17.7086   22.0386   70.0543 C   0  0  0  0  0  0  0  0  0  0  0  0
  -19.3072   22.6913   66.7278 N   0  0  0  0  0  0  0  0  0  0  0  0
  -19.5672   18.6439   73.1464 N   0  0  0  0  0  0  0  0  0  0  0  0
  -12.4744   22.9860   71.9841 C   0  0  0  0  0  0  0  0  0  0  0  0
  -16.7092   21.4255   70.9778 C   0  0  0  0  0  0  0  0  0  0  0  0
  -18.2616   24.0206   64.8392 C   0  0  0  0  0  0  0  0  0  0  0  0
  -16.9565   21.6845   72.3524 O   0  0  0  0  0  0  0  0  0  0  0  0
  -16.7928   17.3908   75.1265 O   0  0  0  0  0  0  0  0  0  0  0  0
  -16.7655   20.4778   67.5807 O   0  0  0  0  0  0  0  0  0  0  0  0
  -20.7466   22.2945   66.6362 O   0  0  0  0  0  0  0  0  0  0  0  0
  -19.8198   20.9002   68.2975 C   0  0  0  0  0  0  0  0  0  0  0  0
  -11.5392   22.6820   70.8455 N   0  0  0  0  0  0  0  0  0  0  0  0
  -18.7490   21.7632   67.7371 C   0  0  0  0  0  0  0  0  0  0  0  0
  -18.9884   24.0691   67.0908 C   0  0  0  0  0  0  0  0  0  0  0  0
  -17.6091   19.1544   70.7275 O   0  0  0  0  0  0  0  0  0  0  0  0
  -17.9480   17.4357   74.5371 C   0  0  0  0  0  0  0  0  0  0  0  0
  -21.0410   21.1263   67.4943 C   0  0  0  0  0  0  0  0  0  0  0  0
  -15.4156   19.4751   70.5732 O   0  0  0  0  0  0  0  0  0  0  0  0
  -17.3819   21.6636   67.5615 C   0  0  0  0  0  0  0  0  0  0  0  0
  -16.8938   22.5511   66.4105 C   0  0  0  0  0  0  0  0  0  0  0  0
  -14.6990   22.4252   72.7936 N   0  0  0  0  0  0  0  0  0  0  0  0
  -18.0272   23.5056   66.2310 C   0  0  0  0  0  0  0  0  0  0  0  0
  -18.7262   16.3784   74.1622 O   0  0  0  0  0  0  0  0  0  0  0  0
  -17.8547   22.4446   68.6401 C   0  0  0  0  0  0  0  0  0  0  0  0
  -13.6274   23.8001   71.3675 C   0  0  0  0  0  0  0  0  0  0  0  0
  1  4  1  0
  1  5  1  0
  1  6  1  0
  2 13  1  0
  2 23  2  0
  2 26  1  0
  3 29  1  0
  3 33  1  0
  5  8  1  0
  6 15  1  0
  6 29  1  0
  7  8  1  0
  7 11  1  0
  7 24  1  0
  9 13  1  0
  9 32  1  0
 10 18  1  0
 10 21  1  0
 10 22  1  0
 12 20  1  0
 12 33  1  0
 13 15  1  0
 14 30  1  0
 16 24  2  0
 17 27  1  0
 18 25  1  0
 19 21  1  0
 19 25  1  0
 21 27  1  0
 22 30  1  0
 24 31  1  0
 27 28  1  0
 27 32  1  0
 28 30  1  0
M  END
>  <ID>  (1) 
conformer_0

$$$$
