
     RDKit          3D

 28 29  0  0  0  0  0  0  0  0999 V2000
  -17.5227   20.7513   72.8877 C   0  0  0  0  0  0  0  0  0  0  0  0
  -17.1110   22.3942   68.7162 C   0  0  0  0  0  0  0  0  0  0  0  0
  -15.7884   20.3915   68.2741 C   0  0  0  0  0  0  0  0  0  0  0  0
  -16.7540   21.0189   69.3473 N   0  0  0  0  0  0  0  0  0  0  0  0
  -19.4358   20.6697   68.9123 C   0  0  0  0  0  0  0  0  0  0  0  0
  -14.7573   24.0046   67.2725 C   0  0  0  0  0  0  0  0  0  0  0  0
  -16.5182   21.3187   71.9397 C   0  0  0  0  0  0  0  0  0  0  0  0
  -17.9025   20.6644   66.8414 C   0  0  0  0  0  0  0  0  0  0  0  0
  -18.0600   19.2637   74.7873 C   0  0  0  0  0  0  0  0  0  0  0  0
  -18.5525   19.7910   73.4467 N   0  0  0  0  0  0  0  0  0  0  0  0
  -14.9866   21.5700   67.7533 C   0  0  0  0  0  0  0  0  0  0  0  0
  -13.7905   23.5712   72.5783 C   0  0  0  0  0  0  0  0  0  0  0  0
  -16.3224   20.5915   70.6822 C   0  0  0  0  0  0  0  0  0  0  0  0
  -15.2883   19.1613   70.9200 C   0  0  0  0  0  0  0  0  0  0  0  0
  -14.1573   23.0919   73.9591 C   0  0  0  0  0  0  0  0  0  0  0  0
  -18.6110   19.8424   67.9348 C   0  0  0  0  0  0  0  0  0  0  0  0
  -15.2055   22.2212   73.8192 C   0  0  0  0  0  0  0  0  0  0  0  0
  -19.5015   20.3201   70.3700 C   0  0  0  0  0  0  0  0  0  0  0  0
  -17.6999   22.1564   67.2351 C   0  0  0  0  0  0  0  0  0  0  0  0
  -15.5476   22.9554   68.2334 C   0  0  0  0  0  0  0  0  0  0  0  0
  -13.4405   23.7817   66.7725 O   0  0  0  0  0  0  0  0  0  0  0  0
  -15.5059   22.1054   72.4427 C   0  0  0  0  0  0  0  0  0  0  0  0
  -14.6260   22.9285   71.7270 C   0  0  0  0  0  0  0  0  0  0  0  0
  -18.6508   16.2506   75.3833 O   0  0  0  0  0  0  0  0  0  0  0  0
  -16.3043   17.5727   75.2075 O   0  0  0  0  0  0  0  0  0  0  0  0
  -18.3811   16.9294   74.1060 C   0  0  0  0  0  0  0  0  0  0  0  0
  -17.3232   17.9928   74.4833 C   0  0  0  0  0  0  0  0  0  0  0  0
  -13.8215   21.3088   67.3022 O   0  0  0  0  0  0  0  0  0  0  0  0
  1  7  1  0
  1 10  1  0
  2  4  1  0
  2 19  1  0
  2 20  1  0
  3  4  1  0
  3 11  1  0
  4 13  1  0
  5 16  1  0
  5 18  1  0
  6 20  1  0
  6 21  1  0
  7 13  1  0
  7 22  1  0
  8 16  1  0
  8 19  1  0
  9 10  1  0
  9 27  1  0
 11 20  1  0
 11 28  2  0
 12 15  1  0
 12 23  1  0
 13 14  1  0
 15 17  1  0
 17 22  1  0
 22 23  1  0
 24 26  1  0
 25 27  1  0
 26 27  1  0
M  END
>  <ID>  (1) 
conformer_0

$$$$
