
     RDKit          3D

 54 59  0  0  0  0  0  0  0  0999 V2000
  -13.1350   24.9161   69.4366 O   0  0  0  0  0  0  0  0  0  0  0  0
  -15.7162   19.7282   69.1064 C   0  0  0  0  0  0  0  0  0  0  0  0
  -14.6767   23.0222   66.8506 C   0  0  0  0  0  0  0  0  0  0  0  0
  -11.6712   22.6134   66.0063 C   0  0  0  0  0  0  0  0  0  0  0  0
  -16.2601   20.5637   76.7050 O   0  0  0  0  0  0  0  0  0  0  0  0
  -18.4088   21.7100   72.6001 O   0  0  0  0  0  0  0  0  0  0  0  0
  -19.3587   21.9714   69.8582 N   0  0  0  0  0  0  0  0  0  0  0  0
  -15.8083   21.0762   69.7570 N   0  0  0  0  0  0  0  0  0  0  0  0
  -12.3242   22.8220   71.6514 O   0  0  0  0  0  0  0  0  0  0  0  0
  -12.1235   25.2761   68.5796 C   0  0  0  0  0  0  0  0  0  0  0  0
  -18.3641   17.3456   74.1473 C   0  0  0  0  0  0  0  0  0  0  0  0
  -17.8485   18.0995   72.8433 C   0  0  0  0  0  0  0  0  0  0  0  0
  -12.3646   23.7515   66.5787 C   0  0  0  0  0  0  0  0  0  0  0  0
  -19.9115   21.1015   70.9239 C   0  0  0  0  0  0  0  0  0  0  0  0
  -13.9033   24.0086   72.9986 C   0  0  0  0  0  0  0  0  0  0  0  0
  -21.1905   22.4846   65.5464 N   0  0  0  0  0  0  0  0  0  0  0  0
  -20.0802   18.8444   73.0826 O   0  0  0  0  0  0  0  0  0  0  0  0
  -20.3349   22.0964   67.6856 C   0  0  0  0  0  0  0  0  0  0  0  0
  -18.7583   22.8660   65.7593 C   0  0  0  0  0  0  0  0  0  0  0  0
  -12.8535   25.0518   70.8361 C   0  0  0  0  0  0  0  0  0  0  0  0
  -15.4293   18.8125   69.9536 O   0  0  0  0  0  0  0  0  0  0  0  0
  -20.7194   19.7177   68.7045 C   0  0  0  0  0  0  0  0  0  0  0  0
  -16.2787   21.2387   74.3704 C   0  0  0  0  0  0  0  0  0  0  0  0
  -10.5898   25.3056   66.9457 C   0  0  0  0  0  0  0  0  0  0  0  0
  -13.6576   21.6028   73.9406 O   0  0  0  0  0  0  0  0  0  0  0  0
  -19.9718   22.8791   68.8669 C   0  0  0  0  0  0  0  0  0  0  0  0
  -16.0128   19.6999   67.8929 O   0  0  0  0  0  0  0  0  0  0  0  0
  -20.0891   22.5349   66.3713 C   0  0  0  0  0  0  0  0  0  0  0  0
  -15.9707   20.1697   75.3325 C   0  0  0  0  0  0  0  0  0  0  0  0
  -18.6856   19.3706   73.1523 C   0  0  0  0  0  0  0  0  0  0  0  0
  -22.1283   20.7673   66.9348 C   0  0  0  0  0  0  0  0  0  0  0  0
  -13.7644   23.8484   66.2487 C   0  0  0  0  0  0  0  0  0  0  0  0
  -15.7810   22.5976   73.8840 C   0  0  0  0  0  0  0  0  0  0  0  0
  -16.5130   23.9008   65.6433 C   0  0  0  0  0  0  0  0  0  0  0  0
  -18.2862   19.0819   74.6979 C   0  0  0  0  0  0  0  0  0  0  0  0
  -11.3274   26.3459   68.7743 N   0  0  0  0  0  0  0  0  0  0  0  0
  -17.1620   21.0889   70.1590 C   0  0  0  0  0  0  0  0  0  0  0  0
  -14.1836   22.1010   67.9007 C   0  0  0  0  0  0  0  0  0  0  0  0
  -13.2003   23.8777   71.6371 C   0  0  0  0  0  0  0  0  0  0  0  0
  -21.0676   20.9318   67.8039 C   0  0  0  0  0  0  0  0  0  0  0  0
  -22.2125   21.6257   65.8642 N   0  0  0  0  0  0  0  0  0  0  0  0
  -17.9479   22.2644   69.8281 C   0  0  0  0  0  0  0  0  0  0  0  0
  -18.7803   20.5569   71.8692 C   0  0  0  0  0  0  0  0  0  0  0  0
  -14.2438   24.7494   65.3632 C   0  0  0  0  0  0  0  0  0  0  0  0
  -16.8421   18.8876   75.1116 C   0  0  0  0  0  0  0  0  0  0  0  0
  -18.3700   16.7434   75.4400 O   0  0  0  0  0  0  0  0  0  0  0  0
  -17.7569   20.0319   70.8721 N   0  0  0  0  0  0  0  0  0  0  0  0
  -17.9495   23.8808   65.3315 O   0  0  0  0  0  0  0  0  0  0  0  0
  -16.0681   17.7788   75.5066 O   0  0  0  0  0  0  0  0  0  0  0  0
  -14.3083   22.7625   73.7268 C   0  0  0  0  0  0  0  0  0  0  0  0
  -16.0081   23.0218   66.5186 C   0  0  0  0  0  0  0  0  0  0  0  0
  -11.7062   24.6976   67.3665 C   0  0  0  0  0  0  0  0  0  0  0  0
  -15.6107   24.8134   65.0540 C   0  0  0  0  0  0  0  0  0  0  0  0
  -10.3378   26.3623   67.7594 N   0  0  0  0  0  0  0  0  0  0  0  0
  1 10  1  0
  1 20  1  0
  2  8  1  0
  2 21  2  0
  2 27  1  0
  3 32  1  0
  3 38  1  0
  3 51  1  0
  4 13  1  0
  5 29  1  0
  6 43  1  0
  7 14  1  0
  7 26  1  0
  7 42  1  0
  8 37  2  3
  9 39  1  0
 10 36  1  0
 10 52  2  0
 11 12  1  0
 11 35  1  0
 11 46  1  0
 12 30  1  0
 13 32  1  0
 13 52  1  0
 14 43  1  0
 15 39  1  0
 15 50  1  0
 16 28  1  0
 16 41  1  0
 17 30  1  0
 18 26  1  0
 18 28  1  0
 18 40  1  0
 19 28  1  0
 19 48  1  0
 20 39  1  0
 22 40  1  0
 23 29  1  0
 23 33  1  0
 24 52  1  0
 24 54  1  0
 25 50  1  0
 29 45  1  0
 30 35  1  0
 30 43  1  0
 31 40  1  0
 31 41  2  0
 32 44  2  0
 33 50  2  0
 34 48  1  0
 34 51  2  0
 34 53  1  0
 35 45  1  0
 36 54  1  0
 37 42  1  0
 37 47  1  0
 43 47  1  0
 44 53  1  0
 45 49  1  0
M  END
>  <ID>  (1) 
conformer_0

$$$$
