
     RDKit          3D

 31 32  0  0  0  0  0  0  0  0999 V2000
  -17.7329   19.2220   74.0453 C   0  0  0  0  0  0  0  0  0  0  0  0
  -17.8632   21.2407   66.4880 O   0  0  0  0  0  0  0  0  0  0  0  0
  -20.4402   20.5604   70.0027 C   0  0  0  0  0  0  0  0  0  0  0  0
  -18.1845   17.1285   75.1129 N   0  0  0  0  0  0  0  0  0  0  0  0
  -17.3819   20.5533   74.6665 C   0  0  0  0  0  0  0  0  0  0  0  0
  -16.9357   20.6341   68.6885 O   0  0  0  0  0  0  0  0  0  0  0  0
  -16.6398   23.3758   65.7337 C   0  0  0  0  0  0  0  0  0  0  0  0
  -21.4036   21.0738   69.1486 C   0  0  0  0  0  0  0  0  0  0  0  0
  -14.8368   21.9178   68.3950 O   0  0  0  0  0  0  0  0  0  0  0  0
  -18.2801   22.6967   73.7709 C   0  0  0  0  0  0  0  0  0  0  0  0
  -17.7684   22.3868   65.6618 C   0  0  0  0  0  0  0  0  0  0  0  0
  -17.2359   18.1169   74.9270 C   0  0  0  0  0  0  0  0  0  0  0  0
  -14.4146   22.0714   73.5325 C   0  0  0  0  0  0  0  0  0  0  0  0
  -15.7128   19.7871   70.7100 C   0  0  0  0  0  0  0  0  0  0  0  0
  -16.0037   21.6463   69.1146 C   0  0  0  0  0  0  0  0  0  0  0  0
  -17.0400   21.6771   73.6936 C   0  0  0  0  0  0  0  0  0  0  0  0
  -15.5150   21.2858   70.5382 C   0  0  0  0  0  0  0  0  0  0  0  0
  -14.4315   22.0619   71.0612 O   0  0  0  0  0  0  0  0  0  0  0  0
  -17.8736   17.9693   71.9399 O   0  0  0  0  0  0  0  0  0  0  0  0
  -16.7456   20.6681   75.8598 O   0  0  0  0  0  0  0  0  0  0  0  0
  -18.7945   21.2053   67.4712 C   0  0  0  0  0  0  0  0  0  0  0  0
  -19.1068   20.4258   69.7787 C   0  0  0  0  0  0  0  0  0  0  0  0
  -16.1133   18.1280   75.4443 O   0  0  0  0  0  0  0  0  0  0  0  0
  -14.1351   22.7240   72.2383 C   0  0  0  0  0  0  0  0  0  0  0  0
  -21.2262   21.6326   67.8932 C   0  0  0  0  0  0  0  0  0  0  0  0
  -18.3228   20.7432   68.6926 C   0  0  0  0  0  0  0  0  0  0  0  0
  -16.0742   19.3804   72.1231 C   0  0  0  0  0  0  0  0  0  0  0  0
  -20.0709   21.6858   67.1588 C   0  0  0  0  0  0  0  0  0  0  0  0
  -15.7538   22.3543   74.1017 N   0  0  0  0  0  0  0  0  0  0  0  0
  -17.3929   19.0435   72.5903 C   0  0  0  0  0  0  0  0  0  0  0  0
  -18.9815   16.6667   74.0799 N   0  0  0  0  0  0  0  0  0  0  0  0
  1  5  1  0
  1 12  1  0
  1 30  1  0
  2 11  1  0
  2 21  1  0
  3  8  1  0
  3 22  2  0
  4 12  1  0
  4 31  1  0
  5 16  1  0
  5 20  1  0
  6 15  1  0
  6 26  1  0
  7 11  1  0
  8 25  1  0
  9 15  1  0
 10 16  1  0
 12 23  2  0
 13 24  1  0
 13 29  1  0
 14 17  1  0
 14 27  1  0
 15 17  1  0
 16 29  1  0
 17 18  1  0
 18 24  1  0
 19 30  1  0
 21 26  2  0
 21 28  1  0
 22 26  1  0
 25 28  2  0
 27 30  1  0
M  END
>  <ID>  (1) 
conformer_0

$$$$
