
     RDKit          3D

 27 28  0  0  0  0  0  0  0  0999 V2000
  -17.3296   20.9856   69.7850 C   0  0  0  0  0  0  0  0  0  0  0  0
  -15.9326   20.8457   74.5288 C   0  0  0  0  0  0  0  0  0  0  0  0
  -16.3590   18.1872   75.1309 O   0  0  0  0  0  0  0  0  0  0  0  0
  -20.0071   20.4747   69.5830 C   0  0  0  0  0  0  0  0  0  0  0  0
  -16.8670   21.5608   66.5519 O   0  0  0  0  0  0  0  0  0  0  0  0
  -14.2036   23.1318   71.1237 C   0  0  0  0  0  0  0  0  0  0  0  0
  -12.8545   22.1805   72.8600 C   0  0  0  0  0  0  0  0  0  0  0  0
  -17.0306   20.0560   73.8029 C   0  0  0  0  0  0  0  0  0  0  0  0
  -15.7381   20.4673   71.6714 C   0  0  0  0  0  0  0  0  0  0  0  0
  -15.1032   21.7865   73.6024 C   0  0  0  0  0  0  0  0  0  0  0  0
  -18.2391   21.7060   70.5807 C   0  0  0  0  0  0  0  0  0  0  0  0
  -17.7677   20.6236   68.5033 C   0  0  0  0  0  0  0  0  0  0  0  0
  -16.3907   21.4438   75.7206 O   0  0  0  0  0  0  0  0  0  0  0  0
  -18.2342   20.6732   73.4885 O   0  0  0  0  0  0  0  0  0  0  0  0
  -16.6815   20.7521   67.4526 C   0  0  0  0  0  0  0  0  0  0  0  0
  -16.3360   19.4258   72.5819 C   0  0  0  0  0  0  0  0  0  0  0  0
  -18.3531   18.0006   73.4694 C   0  0  0  0  0  0  0  0  0  0  0  0
  -18.4939   16.4486   75.2714 O   0  0  0  0  0  0  0  0  0  0  0  0
  -15.3929   20.3431   67.6530 O   0  0  0  0  0  0  0  0  0  0  0  0
  -16.0132   20.3723   70.2351 C   0  0  0  0  0  0  0  0  0  0  0  0
  -19.5957   21.4098   70.5662 C   0  0  0  0  0  0  0  0  0  0  0  0
  -19.1563   20.2147   68.4628 C   0  0  0  0  0  0  0  0  0  0  0  0
  -21.1859   19.8002   69.7283 O   0  0  0  0  0  0  0  0  0  0  0  0
  -15.8129   21.7881   72.2948 O   0  0  0  0  0  0  0  0  0  0  0  0
  -17.5321   18.7333   74.6136 C   0  0  0  0  0  0  0  0  0  0  0  0
  -14.2853   22.1838   72.3244 C   0  0  0  0  0  0  0  0  0  0  0  0
  -18.4911   16.5609   73.8568 C   0  0  0  0  0  0  0  0  0  0  0  0
  1 11  1  0
  1 12  1  0
  1 20  2  3
  2  8  1  0
  2 10  1  0
  2 13  1  0
  3 25  1  0
  4 21  1  0
  4 22  1  0
  4 23  1  0
  5 15  2  0
  6 26  1  0
  7 26  1  0
  8 14  1  0
  8 16  1  0
  8 25  1  0
  9 16  1  0
  9 20  1  0
  9 24  1  0
 10 24  1  0
 10 26  1  0
 11 21  2  0
 12 15  1  0
 12 22  2  0
 15 19  1  0
 17 25  1  0
 17 27  1  0
 18 27  1  0
M  END
>  <ID>  (1) 
conformer_0

$$$$
