
     RDKit          3D

 34 38  0  0  0  0  0  0  0  0999 V2000
  -18.7072   19.4529   68.8394 O   0  0  0  0  0  0  0  0  0  0  0  0
  -18.5631   23.8848   67.2396 C   0  0  0  0  0  0  0  0  0  0  0  0
  -18.6844   23.3730   64.7308 C   0  0  0  0  0  0  0  0  0  0  0  0
  -16.0114   19.4395   75.3095 O   0  0  0  0  0  0  0  0  0  0  0  0
  -17.5865   20.5714   72.5663 C   0  0  0  0  0  0  0  0  0  0  0  0
  -17.0555   19.3933   74.5475 C   0  0  0  0  0  0  0  0  0  0  0  0
  -17.8551   24.6563   65.0731 C   0  0  0  0  0  0  0  0  0  0  0  0
  -20.0361   21.3908   69.5425 C   0  0  0  0  0  0  0  0  0  0  0  0
  -15.3040   21.9300   69.8045 C   0  0  0  0  0  0  0  0  0  0  0  0
  -18.9753   16.6227   74.0255 N   0  0  0  0  0  0  0  0  0  0  0  0
  -18.2294   18.6254   75.0292 C   0  0  0  0  0  0  0  0  0  0  0  0
  -14.5674   22.5903   73.7657 C   0  0  0  0  0  0  0  0  0  0  0  0
  -13.2532   22.5815   73.0170 C   0  0  0  0  0  0  0  0  0  0  0  0
  -20.0755   22.6187   68.5536 C   0  0  0  0  0  0  0  0  0  0  0  0
  -19.9074   24.4325   66.6589 C   0  0  0  0  0  0  0  0  0  0  0  0
  -16.7954   20.6789   66.8678 O   0  0  0  0  0  0  0  0  0  0  0  0
  -18.6978   22.4042   67.6562 C   0  0  0  0  0  0  0  0  0  0  0  0
  -17.8150   22.1887   65.1911 C   0  0  0  0  0  0  0  0  0  0  0  0
  -16.3719   22.5173   68.8212 C   0  0  0  0  0  0  0  0  0  0  0  0
  -17.1684   19.3057   73.1078 O   0  0  0  0  0  0  0  0  0  0  0  0
  -17.9347   22.1200   70.6535 C   0  0  0  0  0  0  0  0  0  0  0  0
  -15.3940   21.2749   73.6315 C   0  0  0  0  0  0  0  0  0  0  0  0
  -12.6005   21.4969   72.2848 O   0  0  0  0  0  0  0  0  0  0  0  0
  -14.9643   20.6080   72.3075 C   0  0  0  0  0  0  0  0  0  0  0  0
  -17.1470   20.8394   71.1304 C   0  0  0  0  0  0  0  0  0  0  0  0
  -17.3252   24.3812   66.5206 C   0  0  0  0  0  0  0  0  0  0  0  0
  -16.7705   16.8262   74.6938 O   0  0  0  0  0  0  0  0  0  0  0  0
  -15.6854   21.2728   71.1178 C   0  0  0  0  0  0  0  0  0  0  0  0
  -16.9318   21.6560   73.4884 C   0  0  0  0  0  0  0  0  0  0  0  0
  -17.8146   22.0064   69.0537 C   0  0  0  0  0  0  0  0  0  0  0  0
  -18.6859   20.7597   68.9279 C   0  0  0  0  0  0  0  0  0  0  0  0
  -17.9041   21.5829   66.5913 C   0  0  0  0  0  0  0  0  0  0  0  0
  -19.4490   21.8240   70.9918 C   0  0  0  0  0  0  0  0  0  0  0  0
  -17.9292   17.2391   74.5798 C   0  0  0  0  0  0  0  0  0  0  0  0
  1 31  1  0
  2 15  1  0
  2 17  1  0
  2 26  1  0
  3  7  1  0
  3 18  1  0
  4  6  2  0
  5 20  1  0
  5 25  1  0
  5 29  1  0
  6 11  1  0
  6 20  1  0
  7 26  1  0
  8 14  1  0
  8 31  1  0
  8 33  1  0
  9 19  1  0
  9 28  1  0
 10 34  1  0
 11 34  1  0
 12 13  1  0
 12 22  1  0
 13 23  1  0
 14 17  1  0
 16 32  1  0
 17 30  1  0
 17 32  1  0
 18 32  2  0
 19 30  1  0
 21 25  1  0
 21 30  1  0
 21 33  1  0
 22 24  1  0
 22 29  1  0
 24 28  1  0
 25 28  1  0
 27 34  2  0
 30 31  1  0
M  END
>  <ID>  (1) 
conformer_0

$$$$
