
     RDKit          3D

 21 21  0  0  0  0  0  0  0  0999 V2000
  -20.7899   21.2859   68.7964 C   0  0  0  0  0  0  0  0  0  0  0  0
  -18.4030   17.0875   74.0824 C   0  0  0  0  0  0  0  0  0  0  0  0
  -18.3853   21.1683   68.3039 C   0  0  0  0  0  0  0  0  0  0  0  0
  -16.1970   21.3781   75.1972 O   0  0  0  0  0  0  0  0  0  0  0  0
  -17.6839   18.2208   74.7547 C   0  0  0  0  0  0  0  0  0  0  0  0
  -13.3216   21.6810   72.2781 O   0  0  0  0  0  0  0  0  0  0  0  0
  -17.5660   19.3754   73.6473 C   0  0  0  0  0  0  0  0  0  0  0  0
  -14.2775   21.5506   73.3959 C   0  0  0  0  0  0  0  0  0  0  0  0
  -15.2505   21.3083   70.4652 C   0  0  0  0  0  0  0  0  0  0  0  0
  -15.2157   20.6519   67.8458 C   0  0  0  0  0  0  0  0  0  0  0  0
  -16.3927   18.1788   75.3804 O   0  0  0  0  0  0  0  0  0  0  0  0
  -16.5402   20.4643   74.1479 C   0  0  0  0  0  0  0  0  0  0  0  0
  -16.1899   21.4023   71.7449 C   0  0  0  0  0  0  0  0  0  0  0  0
  -20.3344   19.7841   68.6588 C   0  0  0  0  0  0  0  0  0  0  0  0
  -17.0290   23.3535   68.4575 C   0  0  0  0  0  0  0  0  0  0  0  0
  -17.1624   21.8646   68.8376 C   0  0  0  0  0  0  0  0  0  0  0  0
  -15.9256   21.0983   69.1099 C   0  0  0  0  0  0  0  0  0  0  0  0
  -15.5473   20.8105   72.9844 C   0  0  0  0  0  0  0  0  0  0  0  0
  -18.8500   19.9295   69.1476 C   0  0  0  0  0  0  0  0  0  0  0  0
  -19.6355   22.0891   68.2394 C   0  0  0  0  0  0  0  0  0  0  0  0
  -17.1851   18.7688   72.4226 O   0  0  0  0  0  0  0  0  0  0  0  0
  1 14  1  0
  1 20  1  0
  2  5  1  0
  3 16  1  0
  3 19  1  0
  3 20  1  0
  4 12  1  0
  5  7  1  0
  5 11  1  0
  6  8  1  0
  7 12  1  0
  7 21  1  0
  8 18  1  0
  9 13  1  0
  9 17  1  0
 10 17  1  0
 12 18  1  0
 13 18  1  0
 14 19  1  0
 15 16  1  0
 16 17  1  0
M  END
>  <ID>  (1) 
conformer_0

$$$$
