
     RDKit          3D

 31 32  0  0  0  0  0  0  0  0999 V2000
  -18.5779   17.0790   74.9567 N   0  0  0  0  0  0  0  0  0  0  0  0
  -16.8791   21.5982   70.9721 C   0  0  0  0  0  0  0  0  0  0  0  0
  -14.7722   20.5796   71.5771 O   0  0  0  0  0  0  0  0  0  0  0  0
  -18.3538   22.8926   68.3792 C   0  0  0  0  0  0  0  0  0  0  0  0
  -20.1837   21.5826   67.7157 O   0  0  0  0  0  0  0  0  0  0  0  0
  -12.8990   23.7162   70.0912 C   0  0  0  0  0  0  0  0  0  0  0  0
  -19.1724   20.2267   70.8363 O   0  0  0  0  0  0  0  0  0  0  0  0
  -17.4541   18.3707   73.3884 C   0  0  0  0  0  0  0  0  0  0  0  0
  -16.2978   19.2486   73.2099 O   0  0  0  0  0  0  0  0  0  0  0  0
  -16.6872   20.5559   73.7203 C   0  0  0  0  0  0  0  0  0  0  0  0
  -14.8111   22.9502   71.3660 C   0  0  0  0  0  0  0  0  0  0  0  0
  -15.9439   21.8352   73.3016 C   0  0  0  0  0  0  0  0  0  0  0  0
  -15.5710   21.6807   71.7845 C   0  0  0  0  0  0  0  0  0  0  0  0
  -17.5970   22.0304   66.2320 C   0  0  0  0  0  0  0  0  0  0  0  0
  -16.3258   21.8203   66.7125 O   0  0  0  0  0  0  0  0  0  0  0  0
  -13.3751   22.7291   71.0556 N   0  0  0  0  0  0  0  0  0  0  0  0
  -17.0840   20.5541   75.0699 O   0  0  0  0  0  0  0  0  0  0  0  0
  -21.0948   20.5086   67.5283 C   0  0  0  0  0  0  0  0  0  0  0  0
  -19.0288   21.4513   68.6247 C   0  0  0  0  0  0  0  0  0  0  0  0
  -14.0383   23.8228   69.0658 C   0  0  0  0  0  0  0  0  0  0  0  0
  -12.8162   22.4294   66.9083 C   0  0  0  0  0  0  0  0  0  0  0  0
  -18.0884   20.6624   72.9492 C   0  0  0  0  0  0  0  0  0  0  0  0
  -17.8346   20.4234   71.4103 C   0  0  0  0  0  0  0  0  0  0  0  0
  -19.0778   16.4865   73.7597 O   0  0  0  0  0  0  0  0  0  0  0  0
  -16.1737   18.0250   75.3458 O   0  0  0  0  0  0  0  0  0  0  0  0
  -19.3620   20.1236   69.4142 C   0  0  0  0  0  0  0  0  0  0  0  0
  -13.8520   22.9785   67.8325 C   0  0  0  0  0  0  0  0  0  0  0  0
  -18.4017   23.1361   66.8464 C   0  0  0  0  0  0  0  0  0  0  0  0
  -17.3809   17.8237   74.7981 C   0  0  0  0  0  0  0  0  0  0  0  0
  -18.7274   19.2970   73.2894 C   0  0  0  0  0  0  0  0  0  0  0  0
  -14.9245   22.2213   74.1205 O   0  0  0  0  0  0  0  0  0  0  0  0
  1 24  1  0
  1 29  1  0
  2 13  1  0
  2 23  1  0
  3 13  1  0
  4 19  1  0
  4 28  1  0
  5 18  1  0
  5 19  1  0
  6 16  1  0
  6 20  1  0
  7 23  1  0
  7 26  1  0
  8  9  1  0
  8 29  1  0
  8 30  1  0
  9 10  1  0
 10 12  1  0
 10 17  1  0
 10 22  1  0
 11 13  1  0
 11 16  1  0
 12 13  1  0
 12 31  1  0
 14 15  1  0
 14 28  1  0
 19 26  1  0
 20 27  1  0
 21 27  1  0
 22 23  1  0
 22 30  1  0
 25 29  2  0
M  END
>  <ID>  (1) 
conformer_0

$$$$
