
     RDKit          3D

 24 27  0  0  0  0  0  0  0  0999 V2000
  -17.7683   20.1259   72.4901 C   0  0  0  0  0  0  0  0  0  0  0  0
  -15.6597   21.7721   73.8839 C   0  0  0  0  0  0  0  0  0  0  0  0
  -19.0611   20.6976   67.5971 C   0  0  0  0  0  0  0  0  0  0  0  0
  -20.4698   20.2499   69.5321 C   0  0  0  0  0  0  0  0  0  0  0  0
  -16.6905   21.7566   66.5317 O   0  0  0  0  0  0  0  0  0  0  0  0
  -17.1230   21.6789   70.4809 N   0  0  0  0  0  0  0  0  0  0  0  0
  -20.2666   20.2219   68.1484 C   0  0  0  0  0  0  0  0  0  0  0  0
  -16.1825   22.1681   69.4482 C   0  0  0  0  0  0  0  0  0  0  0  0
  -16.4765   20.6931   74.5453 N   0  0  0  0  0  0  0  0  0  0  0  0
  -17.8363   17.3943   74.6164 C   0  0  0  0  0  0  0  0  0  0  0  0
  -15.4422   21.9242   67.1366 C   0  0  0  0  0  0  0  0  0  0  0  0
  -17.1633   19.5966   73.7649 C   0  0  0  0  0  0  0  0  0  0  0  0
  -14.5770   22.9309   73.8525 C   0  0  0  0  0  0  0  0  0  0  0  0
  -13.4967   22.2538   72.7777 S   0  0  0  0  0  0  0  0  0  0  0  0
  -18.7835   16.6161   74.1859 O   0  0  0  0  0  0  0  0  0  0  0  0
  -17.0054   21.2413   71.8649 C   0  0  0  0  0  0  0  0  0  0  0  0
  -19.4630   20.7592   70.3395 C   0  0  0  0  0  0  0  0  0  0  0  0
  -18.2728   21.1935   69.7776 C   0  0  0  0  0  0  0  0  0  0  0  0
  -16.6422   17.1232   74.7630 O   0  0  0  0  0  0  0  0  0  0  0  0
  -15.7345   21.4291   72.4242 N   0  0  0  0  0  0  0  0  0  0  0  0
  -18.0868   21.1925   68.4104 C   0  0  0  0  0  0  0  0  0  0  0  0
  -14.5157   21.8136   71.6587 C   0  0  0  0  0  0  0  0  0  0  0  0
  -18.2025   18.8653   74.5869 C   0  0  0  0  0  0  0  0  0  0  0  0
  -16.7178   21.7477   68.0223 C   0  0  0  0  0  0  0  0  0  0  0  0
  1 12  1  0
  1 16  1  0
  2  9  2  0
  2 13  1  0
  2 20  1  0
  3  7  2  0
  3 21  1  0
  4  7  1  0
  4 17  2  0
  5 11  1  0
  6  8  1  0
  6 16  1  0
  6 18  1  0
  8 24  1  0
  9 12  1  0
 10 15  2  0
 10 19  1  0
 10 23  1  0
 11 24  1  0
 12 23  1  0
 13 14  1  0
 14 22  1  0
 16 20  1  0
 17 18  1  0
 18 21  2  0
 20 22  1  0
 21 24  1  0
M  END
>  <ID>  (1) 
conformer_0

$$$$
