
     RDKit          3D

 35 38  0  0  0  0  0  0  0  0999 V2000
  -16.9974   21.2925   70.9536 C   0  0  0  0  0  0  0  0  0  0  0  0
  -20.4267   19.6461   68.0318 C   0  0  0  0  0  0  0  0  0  0  0  0
  -13.4484   24.4122   72.5484 C   0  0  0  0  0  0  0  0  0  0  0  0
  -17.4625   18.5571   72.4633 C   0  0  0  0  0  0  0  0  0  0  0  0
  -19.3873   21.2787   71.3732 C   0  0  0  0  0  0  0  0  0  0  0  0
  -17.7345   17.4959   73.5731 C   0  0  0  0  0  0  0  0  0  0  0  0
  -16.9941   21.7376   69.6670 C   0  0  0  0  0  0  0  0  0  0  0  0
  -11.6607   23.3074   68.3584 C   0  0  0  0  0  0  0  0  0  0  0  0
  -15.7555   21.1420   71.6285 O   0  0  0  0  0  0  0  0  0  0  0  0
  -18.0935   19.8861   72.9414 C   0  0  0  0  0  0  0  0  0  0  0  0
  -16.2332   20.5390   75.9907 N   0  0  0  0  0  0  0  0  0  0  0  0
  -19.9343   20.9930   67.8148 O   0  0  0  0  0  0  0  0  0  0  0  0
  -19.2434   17.1877   73.8017 N   0  0  0  0  0  0  0  0  0  0  0  0
  -19.2538   21.4229   68.8995 C   0  0  0  0  0  0  0  0  0  0  0  0
  -13.0640   23.8072   68.7909 N   0  0  0  0  0  0  0  0  0  0  0  0
  -14.9945   22.2767   71.9649 C   0  0  0  0  0  0  0  0  0  0  0  0
  -14.3644   22.9583   70.9870 C   0  0  0  0  0  0  0  0  0  0  0  0
  -17.9156   21.7492   68.6793 C   0  0  0  0  0  0  0  0  0  0  0  0
  -18.0441   19.7284   74.4745 C   0  0  0  0  0  0  0  0  0  0  0  0
  -16.2873   22.4529   66.9872 O   0  0  0  0  0  0  0  0  0  0  0  0
  -13.9157   23.0946   67.7135 C   0  0  0  0  0  0  0  0  0  0  0  0
  -18.1555   20.8752   71.7647 C   0  0  0  0  0  0  0  0  0  0  0  0
  -17.4511   18.3980   74.8876 C   0  0  0  0  0  0  0  0  0  0  0  0
  -14.5664   24.1163   66.7607 C   0  0  0  0  0  0  0  0  0  0  0  0
  -16.0442   23.9123   67.0746 C   0  0  0  0  0  0  0  0  0  0  0  0
  -16.1978   18.0862   75.3394 O   0  0  0  0  0  0  0  0  0  0  0  0
  -12.8207   24.5355   70.0566 C   0  0  0  0  0  0  0  0  0  0  0  0
  -13.5349   24.0177   71.1930 C   0  0  0  0  0  0  0  0  0  0  0  0
  -19.8623   21.4672   70.1274 C   0  0  0  0  0  0  0  0  0  0  0  0
  -14.8792   22.6267   73.3402 C   0  0  0  0  0  0  0  0  0  0  0  0
  -14.1068   23.7312   73.6259 C   0  0  0  0  0  0  0  0  0  0  0  0
  -17.3057   20.9149   75.0864 C   0  0  0  0  0  0  0  0  0  0  0  0
  -13.9139   21.5529   67.3249 C   0  0  0  0  0  0  0  0  0  0  0  0
  -12.3556   25.6784   69.9657 O   0  0  0  0  0  0  0  0  0  0  0  0
  -17.5906   22.0395   67.2555 C   0  0  0  0  0  0  0  0  0  0  0  0
  1  7  1  0
  1  9  1  0
  1 22  1  0
  2 12  1  0
  3 28  2  0
  3 31  1  0
  4  6  1  0
  4 10  1  0
  5 22  1  0
  5 29  2  0
  6 13  1  0
  6 23  1  0
  7 18  2  0
  8 15  1  0
  9 16  1  0
 10 19  1  0
 10 22  1  0
 11 32  1  0
 12 14  1  0
 14 18  1  0
 14 29  1  0
 15 21  1  0
 15 27  1  0
 16 17  2  0
 16 30  1  0
 17 28  1  0
 18 35  1  0
 19 23  1  0
 19 32  1  0
 20 25  1  0
 20 35  1  0
 21 24  1  0
 21 33  1  0
 23 26  1  0
 24 25  1  0
 27 28  1  0
 27 34  2  0
 30 31  2  0
M  END
>  <ID>  (1) 
conformer_0

$$$$
