
     RDKit          3D

 26 27  0  0  0  0  0  0  0  0999 V2000
  -16.5788   19.5854   75.1016 C   0  0  0  0  0  0  0  0  0  0  0  0
  -14.4340   21.1373   67.5021 C   0  0  0  0  0  0  0  0  0  0  0  0
  -15.7595   20.6908   74.6715 N   0  0  0  0  0  0  0  0  0  0  0  0
  -15.8316   18.6462   75.7348 O   0  0  0  0  0  0  0  0  0  0  0  0
  -15.5879   22.1393   67.7402 C   0  0  0  0  0  0  0  0  0  0  0  0
  -19.6349   23.7510   66.2074 C   0  0  0  0  0  0  0  0  0  0  0  0
  -19.3527   23.1741   67.5446 C   0  0  0  0  0  0  0  0  0  0  0  0
  -16.9541   20.1737   72.6365 C   0  0  0  0  0  0  0  0  0  0  0  0
  -19.0668   18.8205   72.3375 O   0  0  0  0  0  0  0  0  0  0  0  0
  -21.7236   22.5958   67.6456 C   0  0  0  0  0  0  0  0  0  0  0  0
  -17.7240   22.0487   68.8678 C   0  0  0  0  0  0  0  0  0  0  0  0
  -18.1363   17.5364   74.7470 N   0  0  0  0  0  0  0  0  0  0  0  0
  -18.1763   19.4832   73.1544 C   0  0  0  0  0  0  0  0  0  0  0  0
  -18.7419   21.4530   69.6559 C   0  0  0  0  0  0  0  0  0  0  0  0
  -13.2558   22.0461   67.0986 C   0  0  0  0  0  0  0  0  0  0  0  0
  -16.4077   21.6312   68.8295 N   0  0  0  0  0  0  0  0  0  0  0  0
  -16.1243   21.2455   73.3228 C   0  0  0  0  0  0  0  0  0  0  0  0
  -20.1294   21.6443   69.3392 C   0  0  0  0  0  0  0  0  0  0  0  0
  -16.9692   20.2197   71.1568 C   0  0  0  0  0  0  0  0  0  0  0  0
  -15.0370   22.3554   73.0349 C   0  0  0  0  0  0  0  0  0  0  0  0
  -20.3294   22.3985   68.1386 N   0  0  0  0  0  0  0  0  0  0  0  0
  -17.8881   18.9987   74.5726 C   0  0  0  0  0  0  0  0  0  0  0  0
  -13.6459   21.8083   73.4377 C   0  0  0  0  0  0  0  0  0  0  0  0
  -18.9317   16.7721   73.8208 O   0  0  0  0  0  0  0  0  0  0  0  0
  -18.0484   23.1890   68.0666 C   0  0  0  0  0  0  0  0  0  0  0  0
  -18.3425   20.6300   70.7281 N   0  0  0  0  0  0  0  0  0  0  0  0
  1  3  1  0
  1  4  2  0
  1 22  1  0
  2  5  1  0
  2 15  1  0
  3 17  1  0
  5 16  1  0
  6  7  1  0
  7 21  1  0
  7 25  1  0
  8 13  1  0
  8 17  1  0
  8 19  1  0
  9 13  1  0
 10 21  1  0
 11 14  1  0
 11 16  1  0
 11 25  1  0
 12 22  1  0
 12 24  1  0
 13 22  1  0
 14 18  1  0
 14 26  2  3
 17 20  1  0
 18 21  1  0
 19 26  1  0
 20 23  1  0
M  END
>  <ID>  (1) 
conformer_0

$$$$
