
     RDKit          3D

 37 41  0  0  0  0  0  0  0  0999 V2000
  -17.8966   19.4989   74.7917 C   0  0  0  0  0  0  0  0  0  0  0  0
  -19.1063   23.1616   67.5746 C   0  0  0  0  0  0  0  0  0  0  0  0
  -14.3588   24.5755   73.4464 C   0  0  0  0  0  0  0  0  0  0  0  0
  -17.2958   21.5668   67.3577 C   0  0  0  0  0  0  0  0  0  0  0  0
  -21.2933   21.5227   66.7344 C   0  0  0  0  0  0  0  0  0  0  0  0
  -17.0439   19.4120   72.2331 C   0  0  0  0  0  0  0  0  0  0  0  0
  -20.8299   21.3174   68.1894 C   0  0  0  0  0  0  0  0  0  0  0  0
  -20.8436   19.8371   68.6723 C   0  0  0  0  0  0  0  0  0  0  0  0
  -21.0268   22.9172   66.2208 C   0  0  0  0  0  0  0  0  0  0  0  0
  -14.6960   20.6901   67.9887 C   0  0  0  0  0  0  0  0  0  0  0  0
  -16.3074   19.1261   74.4498 C   0  0  0  0  0  0  0  0  0  0  0  0
  -17.0109   20.9214   68.5894 C   0  0  0  0  0  0  0  0  0  0  0  0
  -17.8867   17.0580   74.3091 C   0  0  0  0  0  0  0  0  0  0  0  0
  -12.4742   23.0980   73.4421 N   0  0  0  0  0  0  0  0  0  0  0  0
  -19.4577   18.4835   73.1396 O   0  0  0  0  0  0  0  0  0  0  0  0
  -20.5083   23.7983   67.3534 C   0  0  0  0  0  0  0  0  0  0  0  0
  -15.5956   20.0575   70.3519 N   0  0  0  0  0  0  0  0  0  0  0  0
  -13.2917   21.9953   73.2201 C   0  0  0  0  0  0  0  0  0  0  0  0
  -21.7023   22.2960   69.0794 C   0  0  0  0  0  0  0  0  0  0  0  0
  -16.3199   20.1376   73.3050 C   0  0  0  0  0  0  0  0  0  0  0  0
  -15.5415   19.0202   75.4420 O   0  0  0  0  0  0  0  0  0  0  0  0
  -13.0022   24.3731   73.5041 C   0  0  0  0  0  0  0  0  0  0  0  0
  -21.3762   23.7205   68.5982 C   0  0  0  0  0  0  0  0  0  0  0  0
  -15.7001   20.4691   68.9810 C   0  0  0  0  0  0  0  0  0  0  0  0
  -18.5542   16.6893   75.5061 O   0  0  0  0  0  0  0  0  0  0  0  0
  -16.7087   21.5217   75.2691 O   0  0  0  0  0  0  0  0  0  0  0  0
  -15.0694   20.8515   71.2735 N   0  0  0  0  0  0  0  0  0  0  0  0
  -19.4015   21.9271   68.3113 C   0  0  0  0  0  0  0  0  0  0  0  0
  -15.1517   23.4610   73.1702 C   0  0  0  0  0  0  0  0  0  0  0  0
  -18.7511   21.8114   67.0723 C   0  0  0  0  0  0  0  0  0  0  0  0
  -14.6285   22.2099   73.0504 C   0  0  0  0  0  0  0  0  0  0  0  0
  -15.4525   21.0830   72.5847 C   0  0  0  0  0  0  0  0  0  0  0  0
  -17.4999   20.9279   74.1477 C   0  0  0  0  0  0  0  0  0  0  0  0
  -16.5442   21.9149   66.4475 O   0  0  0  0  0  0  0  0  0  0  0  0
  -18.3982   18.3960   73.9127 C   0  0  0  0  0  0  0  0  0  0  0  0
  -16.5206   19.1461   70.9366 C   0  0  0  0  0  0  0  0  0  0  0  0
  -19.0717   22.0331   69.7695 C   0  0  0  0  0  0  0  0  0  0  0  0
  1 11  1  0
  1 33  1  0
  1 35  1  0
  2 16  1  0
  2 28  1  0
  3 22  2  0
  3 29  1  0
  4 12  1  0
  4 30  1  0
  4 34  2  0
  5  7  1  0
  5  9  1  0
  6 20  1  0
  6 36  1  0
  7  8  1  0
  7 19  1  0
  7 28  1  0
  9 16  1  0
 10 24  1  0
 11 20  1  0
 11 21  1  0
 12 24  2  3
 13 25  1  0
 13 35  1  0
 14 18  2  0
 14 22  1  0
 15 35  1  0
 16 23  1  0
 17 24  1  0
 17 27  1  0
 17 36  1  0
 18 31  1  0
 19 23  1  0
 20 32  1  0
 20 33  1  0
 26 33  1  0
 27 32  1  0
 28 30  1  0
 28 37  1  0
 29 31  2  0
 31 32  1  0
M  END
>  <ID>  (1) 
conformer_0

$$$$
