
     RDKit          3D

 28 29  0  0  0  0  0  0  0  0999 V2000
  -15.2790   21.2915   69.6291 N   0  0  0  0  0  0  0  0  0  0  0  0
  -19.2121   18.6142   73.1713 N   0  0  0  0  0  0  0  0  0  0  0  0
  -21.1036   22.1982   68.7878 C   0  0  0  0  0  0  0  0  0  0  0  0
  -16.6966   21.9526   71.4481 O   0  0  0  0  0  0  0  0  0  0  0  0
  -17.4450   21.6250   69.1401 C   0  0  0  0  0  0  0  0  0  0  0  0
  -16.8038   21.3707   73.8217 C   0  0  0  0  0  0  0  0  0  0  0  0
  -16.4900   21.6383   70.1507 C   0  0  0  0  0  0  0  0  0  0  0  0
  -15.9640   22.0501   72.6348 C   0  0  0  0  0  0  0  0  0  0  0  0
  -18.5147   23.6762   66.7758 C   0  0  0  0  0  0  0  0  0  0  0  0
  -20.6488   20.3955   70.3150 C   0  0  0  0  0  0  0  0  0  0  0  0
  -17.0458   24.1011   66.8079 C   0  0  0  0  0  0  0  0  0  0  0  0
  -16.7507   21.3393   68.0136 N   0  0  0  0  0  0  0  0  0  0  0  0
  -15.4560   21.0587   68.3203 C   0  0  0  0  0  0  0  0  0  0  0  0
  -16.9892   19.9308   73.3330 C   0  0  0  0  0  0  0  0  0  0  0  0
  -18.0880   17.7232   73.5307 C   0  0  0  0  0  0  0  0  0  0  0  0
  -14.4647   21.7830   72.9563 C   0  0  0  0  0  0  0  0  0  0  0  0
  -19.3371   23.6653   67.9217 C   0  0  0  0  0  0  0  0  0  0  0  0
  -13.9329   22.7523   73.9314 N   0  0  0  0  0  0  0  0  0  0  0  0
  -19.3672   20.6158   70.1443 N   0  0  0  0  0  0  0  0  0  0  0  0
  -16.7890   17.6902   75.6729 C   0  0  0  0  0  0  0  0  0  0  0  0
  -18.0526   17.4776   75.0496 C   0  0  0  0  0  0  0  0  0  0  0  0
  -15.8899   18.6531   75.6439 O   0  0  0  0  0  0  0  0  0  0  0  0
  -14.5635   20.5765   67.5016 O   0  0  0  0  0  0  0  0  0  0  0  0
  -18.8662   21.5849   69.3563 C   0  0  0  0  0  0  0  0  0  0  0  0
  -21.5787   21.1552   69.5994 C   0  0  0  0  0  0  0  0  0  0  0  0
  -16.8791   18.4573   73.2180 O   0  0  0  0  0  0  0  0  0  0  0  0
  -19.7576   22.4666   68.6863 C   0  0  0  0  0  0  0  0  0  0  0  0
  -16.2361   21.6655   75.0244 O   0  0  0  0  0  0  0  0  0  0  0  0
  1  7  1  0
  1 13  1  0
  2 15  1  0
  3 25  2  0
  3 27  1  0
  4  7  1  0
  4  8  1  0
  5  7  1  0
  5 12  1  0
  5 24  1  0
  6  8  1  0
  6 14  1  0
  6 28  1  0
  8 16  1  0
  9 11  1  0
  9 17  1  0
 10 19  2  0
 10 25  1  0
 12 13  1  0
 13 23  2  0
 14 26  1  0
 15 21  1  0
 15 26  1  0
 16 18  1  0
 17 27  1  0
 19 24  1  0
 20 21  1  0
 20 22  1  0
 24 27  2  0
M  END
>  <ID>  (1) 
conformer_0

$$$$
