
     RDKit          3D

 29 31  0  0  0  0  0  0  0  0999 V2000
  -14.9616   20.5083   67.6480 Cl  0  0  0  0  0  0  0  0  0  0  0  0
  -20.4919   19.8076   70.2614 O   0  0  0  0  0  0  0  0  0  0  0  0
  -16.9296   20.7056   72.4493 C   0  0  0  0  0  0  0  0  0  0  0  0
  -16.5166   23.7832   67.8991 C   0  0  0  0  0  0  0  0  0  0  0  0
  -15.6242   21.5514   68.4147 C   0  0  0  0  0  0  0  0  0  0  0  0
  -18.7280   18.1190   74.0758 N   0  0  0  0  0  0  0  0  0  0  0  0
  -15.0772   21.7858   73.5599 C   0  0  0  0  0  0  0  0  0  0  0  0
  -19.9479   21.0727   67.1669 O   0  0  0  0  0  0  0  0  0  0  0  0
  -20.4889   21.0543   68.4225 C   0  0  0  0  0  0  0  0  0  0  0  0
  -13.0818   23.3089   73.5622 C   0  0  0  0  0  0  0  0  0  0  0  0
  -17.2144   20.7828   70.0699 C   0  0  0  0  0  0  0  0  0  0  0  0
  -14.3438   23.2893   71.4104 C   0  0  0  0  0  0  0  0  0  0  0  0
  -16.0204   21.7889   72.4285 C   0  0  0  0  0  0  0  0  0  0  0  0
  -18.1530   20.9918   69.1289 O   0  0  0  0  0  0  0  0  0  0  0  0
  -17.6808   20.2643   71.3327 C   0  0  0  0  0  0  0  0  0  0  0  0
  -15.9660   21.1987   69.7092 C   0  0  0  0  0  0  0  0  0  0  0  0
  -14.5571   23.2281   73.9626 C   0  0  0  0  0  0  0  0  0  0  0  0
  -18.2924   19.0958   73.2006 C   0  0  0  0  0  0  0  0  0  0  0  0
  -17.3021   19.9660   73.5487 N   0  0  0  0  0  0  0  0  0  0  0  0
  -18.5941   19.3096   71.8626 C   0  0  0  0  0  0  0  0  0  0  0  0
  -21.4648   20.0245   69.0858 C   0  0  0  0  0  0  0  0  0  0  0  0
  -15.5896   22.7885   67.9326 O   0  0  0  0  0  0  0  0  0  0  0  0
  -17.8337   17.4514   74.9501 C   0  0  0  0  0  0  0  0  0  0  0  0
  -13.0000   23.5111   72.0208 C   0  0  0  0  0  0  0  0  0  0  0  0
  -16.6288   17.7927   75.1806 O   0  0  0  0  0  0  0  0  0  0  0  0
  -19.4422   20.5194   69.4360 C   0  0  0  0  0  0  0  0  0  0  0  0
  -20.9516   22.3283   68.6836 O   0  0  0  0  0  0  0  0  0  0  0  0
  -14.8730   22.0187   71.8586 N   0  0  0  0  0  0  0  0  0  0  0  0
  -18.3401   16.4314   75.5155 O   0  0  0  0  0  0  0  0  0  0  0  0
  1  5  1  0
  2 21  1  0
  2 26  1  0
  3 13  1  0
  3 15  2  0
  3 19  1  0
  4 22  1  0
  5 16  1  0
  5 22  1  0
  6 18  2  3
  6 23  1  0
  7 13  1  0
  7 17  1  0
  8  9  1  0
  9 21  1  0
  9 26  1  0
  9 27  1  0
 10 17  1  0
 10 24  1  0
 11 14  1  0
 11 15  1  0
 11 16  2  3
 12 24  1  0
 12 28  1  0
 13 28  1  0
 14 26  1  0
 15 20  1  0
 18 19  1  0
 18 20  1  0
 23 25  2  0
 23 29  1  0
M  END
>  <ID>  (1) 
conformer_0

$$$$
