
     RDKit          3D

 34 38  0  0  0  0  0  0  0  0999 V2000
  -17.1599   19.5994   72.5781 C   0  0  0  0  0  0  0  0  0  0  0  0
  -16.1039   19.4646   74.7171 C   0  0  0  0  0  0  0  0  0  0  0  0
  -16.0327   19.5684   68.6061 C   0  0  0  0  0  0  0  0  0  0  0  0
  -16.0749   19.0198   75.8757 O   0  0  0  0  0  0  0  0  0  0  0  0
  -15.8078   21.7066   72.2883 C   0  0  0  0  0  0  0  0  0  0  0  0
  -18.6878   16.7459   73.1822 O   0  0  0  0  0  0  0  0  0  0  0  0
  -19.0991   23.4687   67.3316 C   0  0  0  0  0  0  0  0  0  0  0  0
  -18.6134   22.2519   70.4249 C   0  0  0  0  0  0  0  0  0  0  0  0
  -14.9156   21.6355   67.5971 C   0  0  0  0  0  0  0  0  0  0  0  0
  -13.9802   22.4030   73.6357 C   0  0  0  0  0  0  0  0  0  0  0  0
  -18.3808   17.7818   75.2449 C   0  0  0  0  0  0  0  0  0  0  0  0
  -14.8979   22.9269   70.2009 C   0  0  0  0  0  0  0  0  0  0  0  0
  -15.4325   20.7429   68.3436 C   0  0  0  0  0  0  0  0  0  0  0  0
  -20.1538   22.8448   68.2911 C   0  0  0  0  0  0  0  0  0  0  0  0
  -16.9309   18.8915   73.7052 N   0  0  0  0  0  0  0  0  0  0  0  0
  -17.7245   17.6379   73.9093 C   0  0  0  0  0  0  0  0  0  0  0  0
  -17.2534   16.8884   75.0473 C   0  0  0  0  0  0  0  0  0  0  0  0
  -15.3582   20.5596   74.4519 N   0  0  0  0  0  0  0  0  0  0  0  0
  -18.6710   19.9083   70.9549 C   0  0  0  0  0  0  0  0  0  0  0  0
  -19.7874   24.7032   66.6638 C   0  0  0  0  0  0  0  0  0  0  0  0
  -19.5826   22.0034   69.4120 C   0  0  0  0  0  0  0  0  0  0  0  0
  -13.6876   23.5820   68.1668 N   0  0  0  0  0  0  0  0  0  0  0  0
  -19.6667   19.6772   70.1392 N   0  0  0  0  0  0  0  0  0  0  0  0
  -15.0926   21.4854   73.5045 C   0  0  0  0  0  0  0  0  0  0  0  0
  -18.0649   18.8915   71.6787 O   0  0  0  0  0  0  0  0  0  0  0  0
  -13.9331   23.1910   72.3540 C   0  0  0  0  0  0  0  0  0  0  0  0
  -14.1092   23.5632   69.4135 C   0  0  0  0  0  0  0  0  0  0  0  0
  -20.0915   20.7188   69.3420 C   0  0  0  0  0  0  0  0  0  0  0  0
  -21.1095   20.5265   68.2883 C   0  0  0  0  0  0  0  0  0  0  0  0
  -21.1123   21.9298   67.5775 O   0  0  0  0  0  0  0  0  0  0  0  0
  -14.1512   22.6349   67.3167 C   0  0  0  0  0  0  0  0  0  0  0  0
  -18.0708   21.1799   71.1430 C   0  0  0  0  0  0  0  0  0  0  0  0
  -15.0643   22.6315   71.4897 C   0  0  0  0  0  0  0  0  0  0  0  0
  -16.9472   20.8910   72.0813 N   0  0  0  0  0  0  0  0  0  0  0  0
  1 15  1  0
  1 25  1  0
  1 34  1  0
  2  4  2  0
  2 15  1  0
  2 18  1  0
  3 13  1  0
  5 24  1  0
  5 33  1  0
  5 34  1  0
  6 16  2  0
  7 14  1  0
  7 20  1  0
  8 21  1  0
  8 32  2  0
  9 13  3  0
  9 31  1  0
 10 24  1  0
 10 26  1  0
 11 17  1  0
 12 27  1  0
 12 33  2  3
 14 21  1  0
 14 30  1  0
 15 16  1  0
 16 17  1  0
 18 24  2  0
 19 23  2  0
 19 25  1  0
 19 32  1  0
 21 28  2  0
 22 27  2  3
 22 31  1  0
 23 28  1  0
 26 33  1  0
 28 29  1  0
 29 30  1  0
 32 34  1  0
M  END
>  <ID>  (1) 
conformer_0

$$$$
