
     RDKit          3D

 40 42  0  0  0  0  0  0  0  0999 V2000
  -15.1241   20.4714   73.8845 N   0  0  0  0  0  0  0  0  0  0  0  0
  -20.6097   23.9937   67.5379 C   0  0  0  0  0  0  0  0  0  0  0  0
  -15.9138   21.3976   67.9443 C   0  0  0  0  0  0  0  0  0  0  0  0
  -21.0312   19.7150   68.9522 C   0  0  0  0  0  0  0  0  0  0  0  0
  -15.6181   23.2011   66.3078 C   0  0  0  0  0  0  0  0  0  0  0  0
  -19.7488   24.6807   66.6383 C   0  0  0  0  0  0  0  0  0  0  0  0
  -13.5458   24.8112   73.8411 C   0  0  0  0  0  0  0  0  0  0  0  0
  -19.1593   18.9412   75.4203 O   0  0  0  0  0  0  0  0  0  0  0  0
  -19.0245   19.4406   73.0329 C   0  0  0  0  0  0  0  0  0  0  0  0
  -17.8192   22.7387   63.5028 C   0  0  0  0  0  0  0  0  0  0  0  0
  -19.3501   21.5219   69.2646 C   0  0  0  0  0  0  0  0  0  0  0  0
  -17.0679   21.0707   68.3219 C   0  0  0  0  0  0  0  0  0  0  0  0
  -18.3823   18.9070   74.2497 C   0  0  0  0  0  0  0  0  0  0  0  0
  -15.0335   19.2391   70.9230 O   0  0  0  0  0  0  0  0  0  0  0  0
  -15.5771   21.2845   71.7314 N   0  0  0  0  0  0  0  0  0  0  0  0
  -19.7485   24.4677   65.1088 C   0  0  0  0  0  0  0  0  0  0  0  0
  -16.9810   17.1746   75.0340 C   0  0  0  0  0  0  0  0  0  0  0  0
  -18.2842   21.4748   71.5480 C   0  0  0  0  0  0  0  0  0  0  0  0
  -14.8238   21.4269   72.9161 C   0  0  0  0  0  0  0  0  0  0  0  0
  -16.0785   19.4706   73.6430 C   0  0  0  0  0  0  0  0  0  0  0  0
  -18.3628   16.5685   74.9319 N   0  0  0  0  0  0  0  0  0  0  0  0
  -18.1124   21.2511   69.0594 C   0  0  0  0  0  0  0  0  0  0  0  0
  -14.0455   23.4788   73.9656 C   0  0  0  0  0  0  0  0  0  0  0  0
  -13.9399   23.2666   71.5441 C   0  0  0  0  0  0  0  0  0  0  0  0
  -20.6213   21.1988   68.9776 C   0  0  0  0  0  0  0  0  0  0  0  0
  -21.6875   22.0797   68.6649 C   0  0  0  0  0  0  0  0  0  0  0  0
  -18.5044   21.5218   70.1946 C   0  0  0  0  0  0  0  0  0  0  0  0
  -21.6267   23.2722   68.0438 C   0  0  0  0  0  0  0  0  0  0  0  0
  -18.0125   20.2874   72.2454 O   0  0  0  0  0  0  0  0  0  0  0  0
  -16.7120   23.3106   65.6573 N   0  0  0  0  0  0  0  0  0  0  0  0
  -17.5159   23.6704   64.6610 C   0  0  0  0  0  0  0  0  0  0  0  0
  -14.2473   22.7209   72.8352 C   0  0  0  0  0  0  0  0  0  0  0  0
  -16.7379   19.6796   72.3938 C   0  0  0  0  0  0  0  0  0  0  0  0
  -15.2040   22.3007   67.2572 N   0  0  0  0  0  0  0  0  0  0  0  0
  -16.8716   18.7045   74.6980 C   0  0  0  0  0  0  0  0  0  0  0  0
  -13.2134   25.3196   72.5937 C   0  0  0  0  0  0  0  0  0  0  0  0
  -16.2126   19.2744   75.9030 O   0  0  0  0  0  0  0  0  0  0  0  0
  -18.3497   24.8136   64.7290 N   0  0  0  0  0  0  0  0  0  0  0  0
  -13.4136   24.5284   71.4075 C   0  0  0  0  0  0  0  0  0  0  0  0
  -15.7468   20.0334   71.4939 C   0  0  0  0  0  0  0  0  0  0  0  0
  1 19  2  0
  1 20  1  0
  2  6  2  0
  2 28  2  0
  3 12  1  0
  3 34  1  0
  4 25  1  0
  5 30  1  0
  5 34  2  0
  6 16  1  0
  7 23  2  0
  7 36  1  0
  8 13  1  0
  9 13  1  0
 10 31  1  0
 11 25  1  0
 11 27  1  0
 12 22  1  0
 13 35  1  0
 14 40  2  0
 15 19  1  0
 15 40  1  0
 16 38  1  0
 17 21  1  0
 17 35  1  0
 18 27  1  0
 18 29  1  0
 19 32  1  0
 20 33  1  0
 20 35  1  0
 22 27  1  0
 23 32  1  0
 24 32  2  0
 24 39  1  0
 25 26  1  0
 26 28  1  0
 29 33  1  0
 30 31  2  0
 31 38  1  0
 33 40  1  0
 35 37  1  0
 36 39  2  0
M  END
>  <ID>  (1) 
conformer_0

$$$$
