
     RDKit          3D

 34 38  0  0  0  0  0  0  0  0999 V2000
  -18.6100   20.9626   69.1840 C   0  0  0  0  0  0  0  0  0  0  0  0
  -20.1026   22.0003   67.1229 C   0  0  0  0  0  0  0  0  0  0  0  0
  -18.5193   17.2960   74.9777 N   0  0  0  0  0  0  0  0  0  0  0  0
  -15.5659   20.8836   71.7264 C   0  0  0  0  0  0  0  0  0  0  0  0
  -15.2825   20.8698   70.3437 C   0  0  0  0  0  0  0  0  0  0  0  0
  -15.4962   22.2378   73.7442 O   0  0  0  0  0  0  0  0  0  0  0  0
  -13.5211   24.2195   71.8586 C   0  0  0  0  0  0  0  0  0  0  0  0
  -18.7793   21.5716   66.8569 C   0  0  0  0  0  0  0  0  0  0  0  0
  -18.7967   16.4928   73.9043 O   0  0  0  0  0  0  0  0  0  0  0  0
  -16.2374   20.4029   76.2214 O   0  0  0  0  0  0  0  0  0  0  0  0
  -16.8837   21.5917   75.6855 C   0  0  0  0  0  0  0  0  0  0  0  0
  -21.6424   22.8920   68.8513 C   0  0  0  0  0  0  0  0  0  0  0  0
  -15.7220   21.1762   67.2139 O   0  0  0  0  0  0  0  0  0  0  0  0
  -11.6673   22.9817   71.0739 C   0  0  0  0  0  0  0  0  0  0  0  0
  -16.2892   20.7264   69.4458 C   0  0  0  0  0  0  0  0  0  0  0  0
  -17.1384   20.4540   73.5655 C   0  0  0  0  0  0  0  0  0  0  0  0
  -16.7993   20.3880   72.1865 C   0  0  0  0  0  0  0  0  0  0  0  0
  -12.9475   24.8454   70.6473 N   0  0  0  0  0  0  0  0  0  0  0  0
  -16.8270   21.7654   74.1639 C   0  0  0  0  0  0  0  0  0  0  0  0
  -19.1863   19.0697   73.2809 O   0  0  0  0  0  0  0  0  0  0  0  0
  -16.5557   21.0193   68.0334 C   0  0  0  0  0  0  0  0  0  0  0  0
  -17.7382   20.0341   71.2844 C   0  0  0  0  0  0  0  0  0  0  0  0
  -16.3053   18.0325   74.7931 O   0  0  0  0  0  0  0  0  0  0  0  0
  -17.5360   18.3168   74.8090 C   0  0  0  0  0  0  0  0  0  0  0  0
  -20.5548   22.0247   68.4436 C   0  0  0  0  0  0  0  0  0  0  0  0
  -13.3842   21.8590   72.6795 O   0  0  0  0  0  0  0  0  0  0  0  0
  -11.8213   24.0833   70.1284 C   0  0  0  0  0  0  0  0  0  0  0  0
  -17.6145   20.4796   70.0303 C   0  0  0  0  0  0  0  0  0  0  0  0
  -14.7632   21.5172   72.7725 C   0  0  0  0  0  0  0  0  0  0  0  0
  -19.8726   21.3519   69.4379 C   0  0  0  0  0  0  0  0  0  0  0  0
  -12.7016   22.9808   72.0891 C   0  0  0  0  0  0  0  0  0  0  0  0
  -18.1207   19.4939   74.0835 C   0  0  0  0  0  0  0  0  0  0  0  0
  -10.7883   22.0292   71.0682 O   0  0  0  0  0  0  0  0  0  0  0  0
  -17.9929   21.1886   67.8848 C   0  0  0  0  0  0  0  0  0  0  0  0
  1 28  1  0
  1 30  2  0
  1 34  1  0
  2  8  1  0
  2 25  1  0
  3  9  1  0
  3 24  1  0
  4  5  1  0
  4 17  2  0
  4 29  1  0
  5 15  1  0
  6 19  1  0
  6 29  1  0
  7 18  1  0
  7 31  1  0
  8 34  2  0
 10 11  1  0
 11 19  1  0
 12 25  1  0
 13 21  2  0
 14 27  1  0
 14 31  1  0
 14 33  1  0
 15 21  1  0
 15 28  1  0
 16 17  1  0
 16 19  1  0
 16 32  1  0
 17 22  1  0
 18 27  1  0
 20 32  1  0
 21 34  1  0
 22 28  1  0
 23 24  2  0
 24 32  1  0
 25 30  1  0
 26 29  1  0
 26 31  1  0
M  END
>  <ID>  (1) 
conformer_0

$$$$
