
     RDKit          3D

 29 30  0  0  0  0  0  0  0  0999 V2000
  -19.9228   22.0747   69.8912 C   0  0  0  0  0  0  0  0  0  0  0  0
  -17.8861   18.9265   72.0835 O   0  0  0  0  0  0  0  0  0  0  0  0
  -13.9999   24.1195   65.5309 C   0  0  0  0  0  0  0  0  0  0  0  0
  -16.1543   22.0383   74.6677 C   0  0  0  0  0  0  0  0  0  0  0  0
  -14.7812   21.0927   68.9305 O   0  0  0  0  0  0  0  0  0  0  0  0
  -17.3888   19.9351   72.8999 C   0  0  0  0  0  0  0  0  0  0  0  0
  -15.4192   24.4533   65.3848 O   0  0  0  0  0  0  0  0  0  0  0  0
  -15.8007   21.8888   72.2101 C   0  0  0  0  0  0  0  0  0  0  0  0
  -15.1639   21.8483   73.5639 N   0  0  0  0  0  0  0  0  0  0  0  0
  -18.9323   16.3500   74.6364 N   0  0  0  0  0  0  0  0  0  0  0  0
  -17.7316   22.5510   67.4503 C   0  0  0  0  0  0  0  0  0  0  0  0
  -17.1924   21.2502   72.1565 C   0  0  0  0  0  0  0  0  0  0  0  0
  -19.2539   21.0104   70.7801 C   0  0  0  0  0  0  0  0  0  0  0  0
  -16.4078   18.1782   75.4569 O   0  0  0  0  0  0  0  0  0  0  0  0
  -17.6984   21.0240   70.7353 C   0  0  0  0  0  0  0  0  0  0  0  0
  -16.1465   22.6119   67.5091 C   0  0  0  0  0  0  0  0  0  0  0  0
  -13.5606   23.4228   72.5538 C   0  0  0  0  0  0  0  0  0  0  0  0
  -15.6738   24.0164   67.6201 O   0  0  0  0  0  0  0  0  0  0  0  0
  -19.0301   20.0475   68.2617 C   0  0  0  0  0  0  0  0  0  0  0  0
  -15.8144   21.9292   68.8794 C   0  0  0  0  0  0  0  0  0  0  0  0
  -17.1742   20.1970   67.0967 C   0  0  0  0  0  0  0  0  0  0  0  0
  -17.9146   21.0981   68.1296 C   0  0  0  0  0  0  0  0  0  0  0  0
  -17.6933   18.4168   74.8964 C   0  0  0  0  0  0  0  0  0  0  0  0
  -17.6293   19.8378   74.3747 C   0  0  0  0  0  0  0  0  0  0  0  0
  -18.4165   17.4269   73.9781 C   0  0  0  0  0  0  0  0  0  0  0  0
  -17.0694   21.3574   69.4191 C   0  0  0  0  0  0  0  0  0  0  0  0
  -16.2493   24.7682   66.4576 C   0  0  0  0  0  0  0  0  0  0  0  0
  -16.7958   20.7801   75.2322 C   0  0  0  0  0  0  0  0  0  0  0  0
  -13.8069   22.3463   73.6587 C   0  0  0  0  0  0  0  0  0  0  0  0
  1 13  1  0
  2  6  1  0
  3  7  1  0
  4  9  1  0
  4 28  1  0
  5 20  1  0
  6 12  1  0
  6 24  1  0
  7 27  1  0
  8  9  1  0
  8 12  1  0
  9 29  1  0
 10 25  1  0
 11 16  1  0
 11 22  1  0
 12 15  1  0
 13 15  1  0
 14 23  1  0
 15 26  1  0
 16 18  1  0
 16 20  1  0
 17 29  1  0
 18 27  1  0
 19 22  1  0
 20 26  1  0
 21 22  1  0
 22 26  1  0
 23 24  1  0
 23 25  1  0
 24 28  1  0
M  END
>  <ID>  (1) 
conformer_0

$$$$
