
     RDKit          3D

 26 25  0  0  0  0  0  0  0  0999 V2000
  -17.2133   20.7806   67.0077 C   0  0  0  0  0  0  0  0  0  0  0  0
  -18.3757   17.4395   73.6917 C   0  0  0  0  0  0  0  0  0  0  0  0
  -15.4339   19.5812   70.2544 C   0  0  0  0  0  0  0  0  0  0  0  0
  -19.9598   19.7138   68.2506 C   0  0  0  0  0  0  0  0  0  0  0  0
  -15.6738   20.5739   71.4934 C   0  0  0  0  0  0  0  0  0  0  0  0
  -18.7585   16.3088   74.2200 O   0  0  0  0  0  0  0  0  0  0  0  0
  -18.1069   23.5842   67.7512 C   0  0  0  0  0  0  0  0  0  0  0  0
  -16.1252   21.6293   66.6215 O   0  0  0  0  0  0  0  0  0  0  0  0
  -15.6364   22.1969   73.7933 N   0  0  0  0  0  0  0  0  0  0  0  0
  -17.3005   22.6083   68.6702 C   0  0  0  0  0  0  0  0  0  0  0  0
  -14.3900   20.9354   71.8987 O   0  0  0  0  0  0  0  0  0  0  0  0
  -15.9822   22.4074   69.5124 C   0  0  0  0  0  0  0  0  0  0  0  0
  -17.1234   18.1110   74.4023 C   0  0  0  0  0  0  0  0  0  0  0  0
  -16.3777   21.8577   70.9486 C   0  0  0  0  0  0  0  0  0  0  0  0
  -17.0402   19.5556   73.8409 C   0  0  0  0  0  0  0  0  0  0  0  0
  -16.6492   19.6805   72.4127 C   0  0  0  0  0  0  0  0  0  0  0  0
  -16.1544   21.0556   76.2216 O   0  0  0  0  0  0  0  0  0  0  0  0
  -19.1769   20.8567   68.7443 C   0  0  0  0  0  0  0  0  0  0  0  0
  -19.4255   18.3456   73.4004 O   0  0  0  0  0  0  0  0  0  0  0  0
  -19.9311   21.8281   69.7507 C   0  0  0  0  0  0  0  0  0  0  0  0
  -14.3995   22.9789   73.9903 C   0  0  0  0  0  0  0  0  0  0  0  0
  -17.6103   20.8516   74.4116 C   0  0  0  0  0  0  0  0  0  0  0  0
  -17.7739   19.2810   71.5444 O   0  0  0  0  0  0  0  0  0  0  0  0
  -17.7993   21.1752   68.3100 C   0  0  0  0  0  0  0  0  0  0  0  0
  -15.9962   18.2523   75.4584 O   0  0  0  0  0  0  0  0  0  0  0  0
  -16.3455   21.6983   74.9550 C   0  0  0  0  0  0  0  0  0  0  0  0
  1  8  1  0
  1 24  1  0
  2  6  1  0
  2 13  1  0
  2 19  1  0
  3  5  1  0
  4 18  1  0
  5 11  1  0
  5 14  1  0
  5 16  1  0
  7 10  1  0
  9 21  1  0
  9 26  1  0
 10 12  1  0
 10 24  1  0
 12 14  1  0
 13 15  1  0
 13 25  1  0
 15 16  1  0
 15 22  1  0
 16 23  1  0
 17 26  2  0
 18 20  1  0
 18 24  1  0
 22 26  1  0
M  END
>  <ID>  (1) 
conformer_0

$$$$
