
     RDKit          3D

 24 26  0  0  0  0  0  0  0  0999 V2000
  -16.5117   20.4145   73.5367 N   0  0  0  0  0  0  0  0  0  0  0  0
  -17.6878   19.6553   74.1288 C   0  0  0  0  0  0  0  0  0  0  0  0
  -17.9900   17.2518   73.7740 C   0  0  0  0  0  0  0  0  0  0  0  0
  -16.7450   21.2029   72.2128 C   0  0  0  0  0  0  0  0  0  0  0  0
  -16.4663   20.7435   70.7074 C   0  0  0  0  0  0  0  0  0  0  0  0
  -17.2874   21.2927   69.5441 C   0  0  0  0  0  0  0  0  0  0  0  0
  -15.8460   22.4834   72.3849 C   0  0  0  0  0  0  0  0  0  0  0  0
  -18.8414   21.4161   69.2615 C   0  0  0  0  0  0  0  0  0  0  0  0
  -17.7318   20.7176   67.1951 C   0  0  0  0  0  0  0  0  0  0  0  0
  -19.0819   20.5964   67.9192 C   0  0  0  0  0  0  0  0  0  0  0  0
  -15.3219   20.1164   70.5768 O   0  0  0  0  0  0  0  0  0  0  0  0
  -18.3636   21.2908   72.1955 C   0  0  0  0  0  0  0  0  0  0  0  0
  -20.1429   19.5390   68.3053 C   0  0  0  0  0  0  0  0  0  0  0  0
  -16.0763   20.3325   75.8650 O   0  0  0  0  0  0  0  0  0  0  0  0
  -14.9862   22.8295   73.5727 C   0  0  0  0  0  0  0  0  0  0  0  0
  -16.1375   21.0645   74.7491 C   0  0  0  0  0  0  0  0  0  0  0  0
  -15.4322   20.8142   67.9211 O   0  0  0  0  0  0  0  0  0  0  0  0
  -20.3202   21.8444   69.6082 C   0  0  0  0  0  0  0  0  0  0  0  0
  -21.5749   20.1753   68.3317 C   0  0  0  0  0  0  0  0  0  0  0  0
  -18.5190   17.3179   75.1462 O   0  0  0  0  0  0  0  0  0  0  0  0
  -18.3140   18.6048   73.1924 C   0  0  0  0  0  0  0  0  0  0  0  0
  -21.3469   21.7070   68.4065 C   0  0  0  0  0  0  0  0  0  0  0  0
  -15.4011   22.2064   74.7605 N   0  0  0  0  0  0  0  0  0  0  0  0
  -16.6684   21.2475   68.1577 C   0  0  0  0  0  0  0  0  0  0  0  0
  1  2  1  0
  1  4  1  0
  1 16  1  0
  2 21  1  0
  3 20  1  0
  3 21  1  0
  4  5  1  0
  4  7  1  0
  4 12  1  0
  5  6  1  0
  5 11  1  0
  6  8  1  0
  6 24  1  0
  7 15  1  0
  8 10  1  0
  8 18  1  0
  9 10  1  0
  9 24  1  0
 10 13  1  0
 13 19  1  0
 14 16  2  0
 15 23  1  0
 16 23  1  0
 17 24  1  0
 18 22  1  0
 19 22  1  0
M  END
>  <ID>  (1) 
conformer_0

$$$$
