
     RDKit          3D

 21 22  0  0  0  0  0  0  0  0999 V2000
  -16.3168   17.6313   75.1486 O   0  0  0  0  0  0  0  0  0  0  0  0
  -15.3484   22.6634   73.3351 C   0  0  0  0  0  0  0  0  0  0  0  0
  -16.0400   20.9236   67.3415 O   0  0  0  0  0  0  0  0  0  0  0  0
  -17.6741   21.3652   70.5494 C   0  0  0  0  0  0  0  0  0  0  0  0
  -20.1205   21.9267   69.9818 C   0  0  0  0  0  0  0  0  0  0  0  0
  -16.1124   19.6629   73.8963 C   0  0  0  0  0  0  0  0  0  0  0  0
  -18.3516   18.2412   74.1311 C   0  0  0  0  0  0  0  0  0  0  0  0
  -18.7788   19.7553   68.0161 C   0  0  0  0  0  0  0  0  0  0  0  0
  -17.3729   20.4834   71.8697 C   0  0  0  0  0  0  0  0  0  0  0  0
  -15.4447   22.2898   70.6884 C   0  0  0  0  0  0  0  0  0  0  0  0
  -16.8131   18.3533   74.0237 C   0  0  0  0  0  0  0  0  0  0  0  0
  -18.9255   22.0275   67.1033 C   0  0  0  0  0  0  0  0  0  0  0  0
  -13.6883   21.4716   72.1226 O   0  0  0  0  0  0  0  0  0  0  0  0
  -15.8770   20.3599   72.4924 C   0  0  0  0  0  0  0  0  0  0  0  0
  -18.7390   21.6385   69.5868 C   0  0  0  0  0  0  0  0  0  0  0  0
  -18.7101   16.8257   73.9879 O   0  0  0  0  0  0  0  0  0  0  0  0
  -16.8060   21.4334   68.2909 C   0  0  0  0  0  0  0  0  0  0  0  0
  -15.0923   21.6908   72.1288 C   0  0  0  0  0  0  0  0  0  0  0  0
  -16.3087   21.3602   69.7190 C   0  0  0  0  0  0  0  0  0  0  0  0
  -15.4527   20.1074   69.7618 F   0  0  0  0  0  0  0  0  0  0  0  0
  -18.2756   21.2222   68.1883 C   0  0  0  0  0  0  0  0  0  0  0  0
  1 11  1  0
  2 18  1  0
  3 17  1  0
  4  9  1  0
  4 15  1  0
  4 19  1  0
  5 15  1  0
  6 11  1  0
  6 14  1  0
  7 11  1  0
  7 16  1  0
  8 21  1  0
  9 14  1  0
 10 18  1  0
 10 19  1  0
 12 21  1  0
 13 18  1  0
 14 18  1  0
 15 21  1  0
 17 19  1  0
 17 21  1  0
 19 20  1  0
M  END
>  <ID>  (1) 
conformer_0

$$$$
