
     RDKit          3D

 43 48  0  0  0  0  0  0  0  0999 V2000
  -17.3719   19.9283   73.9900 C   0  0  0  0  0  0  0  0  0  0  0  0
  -13.3109   25.1229   68.7528 C   0  0  0  0  0  0  0  0  0  0  0  0
  -16.9591   21.1833   75.9809 O   0  0  0  0  0  0  0  0  0  0  0  0
  -19.6743   22.8737   65.3952 C   0  0  0  0  0  0  0  0  0  0  0  0
  -14.3102   23.2623   69.8517 C   0  0  0  0  0  0  0  0  0  0  0  0
  -17.3018   19.9598   71.2396 C   0  0  0  0  0  0  0  0  0  0  0  0
  -22.3110   21.6451   67.6951 C   0  0  0  0  0  0  0  0  0  0  0  0
  -20.4025   22.2535   69.0214 C   0  0  0  0  0  0  0  0  0  0  0  0
  -14.4570   23.5855   65.4658 C   0  0  0  0  0  0  0  0  0  0  0  0
  -16.5644   20.0176   69.9001 C   0  0  0  0  0  0  0  0  0  0  0  0
  -15.8960   19.2315   75.7651 O   0  0  0  0  0  0  0  0  0  0  0  0
  -14.2461   24.0738   68.6842 C   0  0  0  0  0  0  0  0  0  0  0  0
  -18.0788   17.4877   73.9990 C   0  0  0  0  0  0  0  0  0  0  0  0
  -17.3387   19.6353   68.8499 O   0  0  0  0  0  0  0  0  0  0  0  0
  -15.4111   23.3929   67.9035 C   0  0  0  0  0  0  0  0  0  0  0  0
  -17.4041   21.2006   71.9442 C   0  0  0  0  0  0  0  0  0  0  0  0
  -20.3653   22.5898   66.5728 C   0  0  0  0  0  0  0  0  0  0  0  0
  -18.3125   23.2568   65.4783 C   0  0  0  0  0  0  0  0  0  0  0  0
  -13.0811   24.7184   71.1455 C   0  0  0  0  0  0  0  0  0  0  0  0
  -21.2944   21.1150   68.8294 C   0  0  0  0  0  0  0  0  0  0  0  0
  -17.7359   18.8261   71.8795 N   0  0  0  0  0  0  0  0  0  0  0  0
  -15.1280   22.1109   69.7815 N   0  0  0  0  0  0  0  0  0  0  0  0
  -13.8381   24.3836   73.4293 C   0  0  0  0  0  0  0  0  0  0  0  0
  -17.6835   23.3857   66.7552 C   0  0  0  0  0  0  0  0  0  0  0  0
  -14.8290   21.5243   66.7249 O   0  0  0  0  0  0  0  0  0  0  0  0
  -19.1241   16.8444   73.6660 O   0  0  0  0  0  0  0  0  0  0  0  0
  -16.3265   23.7190   66.8150 O   0  0  0  0  0  0  0  0  0  0  0  0
  -17.3839   17.0753   75.0227 O   0  0  0  0  0  0  0  0  0  0  0  0
  -13.3575   22.9516   73.3506 C   0  0  0  0  0  0  0  0  0  0  0  0
  -21.7208   22.2062   66.5466 O   0  0  0  0  0  0  0  0  0  0  0  0
  -13.7328   22.4036   72.0530 C   0  0  0  0  0  0  0  0  0  0  0  0
  -15.2227   20.6413   70.0266 C   0  0  0  0  0  0  0  0  0  0  0  0
  -17.3863   21.1637   73.3442 O   0  0  0  0  0  0  0  0  0  0  0  0
  -16.7772   20.0058   75.3917 C   0  0  0  0  0  0  0  0  0  0  0  0
  -18.4683   23.2093   67.8701 C   0  0  0  0  0  0  0  0  0  0  0  0
  -13.0455   25.1673   72.4727 O   0  0  0  0  0  0  0  0  0  0  0  0
  -17.7947   18.7624   73.2758 C   0  0  0  0  0  0  0  0  0  0  0  0
  -13.6974   23.4998   71.0067 C   0  0  0  0  0  0  0  0  0  0  0  0
  -15.2048   22.9407   66.6047 C   0  0  0  0  0  0  0  0  0  0  0  0
  -15.9262   22.5540   68.8806 C   0  0  0  0  0  0  0  0  0  0  0  0
  -12.7000   25.4445   70.0230 C   0  0  0  0  0  0  0  0  0  0  0  0
  -19.7429   22.2240   70.3276 C   0  0  0  0  0  0  0  0  0  0  0  0
  -19.7177   22.7079   67.8216 C   0  0  0  0  0  0  0  0  0  0  0  0
  1 33  1  0
  1 34  1  0
  1 37  1  0
  2 12  1  0
  2 41  2  0
  3 34  2  0
  4 17  2  0
  4 18  1  0
  5 12  1  0
  5 22  1  0
  5 38  2  0
  6 10  1  0
  6 16  1  0
  6 21  1  0
  7 20  1  0
  7 30  1  0
  8 20  1  0
  8 42  1  0
  8 43  1  0
  9 39  1  0
 10 14  1  0
 10 32  1  0
 11 34  1  0
 12 15  1  0
 13 26  2  0
 13 28  1  0
 13 37  1  0
 15 39  1  0
 15 40  1  0
 16 33  1  0
 17 30  1  0
 17 43  1  0
 18 24  2  0
 19 36  1  0
 19 38  1  0
 19 41  1  0
 21 37  2  0
 22 32  1  0
 22 40  1  0
 23 29  1  0
 23 36  1  0
 24 27  1  0
 24 35  1  0
 25 39  1  0
 27 39  1  0
 29 31  1  0
 31 38  1  0
 35 43  2  0
M  END
>  <ID>  (1) 
conformer_0

$$$$
