
     RDKit          3D

 34 35  0  0  0  0  0  0  0  0999 V2000
  -16.7636   21.1486   72.2784 C   0  0  0  0  0  0  0  0  0  0  0  0
  -15.8037   21.9122   71.7278 N   0  0  0  0  0  0  0  0  0  0  0  0
  -18.0084   20.9077   71.4500 C   0  0  0  0  0  0  0  0  0  0  0  0
  -18.0429   20.7062   69.9549 C   0  0  0  0  0  0  0  0  0  0  0  0
  -18.0945   19.6086   75.3962 O   0  0  0  0  0  0  0  0  0  0  0  0
  -16.5510   21.6313   68.1756 C   0  0  0  0  0  0  0  0  0  0  0  0
  -12.8350   22.8751   73.5639 N   0  0  0  0  0  0  0  0  0  0  0  0
  -14.6426   22.5183   71.9608 C   0  0  0  0  0  0  0  0  0  0  0  0
  -14.2318   21.7215   67.3692 N   0  0  0  0  0  0  0  0  0  0  0  0
  -21.1047   21.4242   67.6288 C   0  0  0  0  0  0  0  0  0  0  0  0
  -19.0249   21.6163   71.9868 O   0  0  0  0  0  0  0  0  0  0  0  0
  -14.0251   22.3143   73.2481 C   0  0  0  0  0  0  0  0  0  0  0  0
  -18.3930   18.5480   73.3357 C   0  0  0  0  0  0  0  0  0  0  0  0
  -17.1187   21.1884   67.2222 O   0  0  0  0  0  0  0  0  0  0  0  0
  -14.9695   23.6130   68.3805 C   0  0  0  0  0  0  0  0  0  0  0  0
  -19.3578   21.0816   69.3022 N   0  0  0  0  0  0  0  0  0  0  0  0
  -16.9353   21.4155   69.4317 N   0  0  0  0  0  0  0  0  0  0  0  0
  -15.2704   22.3006   68.0102 C   0  0  0  0  0  0  0  0  0  0  0  0
  -11.9469   22.3836   66.4515 C   0  0  0  0  0  0  0  0  0  0  0  0
  -18.1544   17.3662   74.2898 C   0  0  0  0  0  0  0  0  0  0  0  0
  -20.5135   20.3346   69.9039 C   0  0  0  0  0  0  0  0  0  0  0  0
  -18.9093   16.3731   74.0072 O   0  0  0  0  0  0  0  0  0  0  0  0
  -14.6119   21.5398   74.1979 N   0  0  0  0  0  0  0  0  0  0  0  0
  -17.0193   17.2690   74.8696 O   0  0  0  0  0  0  0  0  0  0  0  0
  -21.1959   22.5103   68.6960 C   0  0  0  0  0  0  0  0  0  0  0  0
  -18.0416   19.8367   74.0145 C   0  0  0  0  0  0  0  0  0  0  0  0
  -16.8192   20.6042   73.5990 C   0  0  0  0  0  0  0  0  0  0  0  0
  -13.6979   23.8734   67.7927 C   0  0  0  0  0  0  0  0  0  0  0  0
  -19.7609   22.5582   69.3057 C   0  0  0  0  0  0  0  0  0  0  0  0
  -11.4977   24.7977   66.2273 O   0  0  0  0  0  0  0  0  0  0  0  0
  -11.4261   23.4711   65.5739 N   0  0  0  0  0  0  0  0  0  0  0  0
  -15.7085   20.8281   74.3761 C   0  0  0  0  0  0  0  0  0  0  0  0
  -13.2308   22.7121   67.1794 C   0  0  0  0  0  0  0  0  0  0  0  0
  -19.7687   20.6739   67.9180 C   0  0  0  0  0  0  0  0  0  0  0  0
  1  2  1  0
  1  3  1  0
  1 27  2  0
  2  8  2  0
  3  4  1  0
  3 11  1  0
  4 16  1  0
  4 17  1  0
  5 26  1  0
  6 14  2  0
  6 17  1  0
  6 18  1  0
  7 12  2  0
  8 12  1  0
  9 18  1  0
  9 33  1  0
 10 25  1  0
 10 34  1  0
 12 23  1  0
 13 20  1  0
 13 26  1  0
 15 18  1  0
 15 28  1  0
 16 21  1  0
 16 34  1  0
 19 31  1  0
 19 33  1  0
 20 22  2  0
 20 24  1  0
 23 32  2  0
 25 29  1  0
 26 27  1  0
 27 32  1  0
 28 33  1  0
 30 31  1  0
M  END
>  <ID>  (1) 
conformer_0

$$$$
