
     RDKit          3D

 22 25  0  0  0  0  0  0  0  0999 V2000
  -16.7220   18.8947   73.5331 C   0  0  0  0  0  0  0  0  0  0  0  0
  -16.0113   20.2315   73.1292 C   0  0  0  0  0  0  0  0  0  0  0  0
  -19.2104   20.5033   70.9236 C   0  0  0  0  0  0  0  0  0  0  0  0
  -20.1005   20.0497   69.6703 C   0  0  0  0  0  0  0  0  0  0  0  0
  -16.6561   22.2433   68.6084 C   0  0  0  0  0  0  0  0  0  0  0  0
  -17.8544   21.2042   68.8771 C   0  0  0  0  0  0  0  0  0  0  0  0
  -16.7466   18.3800   74.9770 C   0  0  0  0  0  0  0  0  0  0  0  0
  -17.9427   17.3855   75.0564 C   0  0  0  0  0  0  0  0  0  0  0  0
  -16.8080   20.4896   71.8592 O   0  0  0  0  0  0  0  0  0  0  0  0
  -15.1939   21.6337   73.2923 C   0  0  0  0  0  0  0  0  0  0  0  0
  -14.6972   22.8084   70.5974 C   0  0  0  0  0  0  0  0  0  0  0  0
  -14.6453   22.1255   67.5730 C   0  0  0  0  0  0  0  0  0  0  0  0
  -16.1837   21.9094   67.1970 O   0  0  0  0  0  0  0  0  0  0  0  0
  -15.8650   19.3232   75.7069 O   0  0  0  0  0  0  0  0  0  0  0  0
  -15.4002   22.6316   72.0620 C   0  0  0  0  0  0  0  0  0  0  0  0
  -15.1862   22.6934   69.0459 C   0  0  0  0  0  0  0  0  0  0  0  0
  -18.1593   19.1254   73.0768 N   0  0  0  0  0  0  0  0  0  0  0  0
  -18.6184   16.7664   73.9088 N   0  0  0  0  0  0  0  0  0  0  0  0
  -18.1189   19.9153   71.8712 C   0  0  0  0  0  0  0  0  0  0  0  0
  -13.6478   21.6005   73.3213 C   0  0  0  0  0  0  0  0  0  0  0  0
  -18.5435   21.7301   70.1999 C   0  0  0  0  0  0  0  0  0  0  0  0
  -19.0127   20.1692   68.4720 C   0  0  0  0  0  0  0  0  0  0  0  0
  1  2  1  0
  1  7  1  0
  1 17  1  0
  2  9  1  0
  2 10  1  0
  3  4  1  0
  3 19  1  0
  3 21  1  0
  4 22  1  0
  5  6  1  0
  5 13  1  0
  5 16  1  0
  6 21  1  0
  6 22  1  0
  7  8  1  0
  7 14  1  0
  8 18  1  0
  9 19  1  0
 10 15  1  0
 10 20  1  0
 11 15  1  0
 11 16  1  0
 12 13  1  0
 12 16  1  0
 17 19  1  0
M  END
>  <ID>  (1) 
conformer_0

$$$$
