
     RDKit          3D

 35 40  0  0  0  0  0  0  0  0999 V2000
  -18.8168   20.1382   70.1761 C   0  0  0  0  0  0  0  0  0  0  0  0
  -16.7042   23.1788   67.8904 C   0  0  0  0  0  0  0  0  0  0  0  0
  -16.7618   19.7393   74.2214 C   0  0  0  0  0  0  0  0  0  0  0  0
  -18.5960   22.1183   66.3955 C   0  0  0  0  0  0  0  0  0  0  0  0
  -13.5047   23.6230   70.2412 C   0  0  0  0  0  0  0  0  0  0  0  0
  -16.6421   20.6253   69.0031 C   0  0  0  0  0  0  0  0  0  0  0  0
  -12.4691   22.5009   72.1809 C   0  0  0  0  0  0  0  0  0  0  0  0
  -14.2430   23.7655   72.8179 O   0  0  0  0  0  0  0  0  0  0  0  0
  -18.1003   20.9057   69.0856 C   0  0  0  0  0  0  0  0  0  0  0  0
  -18.0436   19.9082   71.4996 C   0  0  0  0  0  0  0  0  0  0  0  0
  -20.1293   20.8458   70.5834 C   0  0  0  0  0  0  0  0  0  0  0  0
  -17.0814   18.3455   74.6597 C   0  0  0  0  0  0  0  0  0  0  0  0
  -15.9351   22.4096   70.9056 O   0  0  0  0  0  0  0  0  0  0  0  0
  -18.7960   22.2097   68.7628 C   0  0  0  0  0  0  0  0  0  0  0  0
  -18.2290   17.7274   73.8503 C   0  0  0  0  0  0  0  0  0  0  0  0
  -18.7601   16.5863   74.1566 O   0  0  0  0  0  0  0  0  0  0  0  0
  -19.1927   18.8214   73.7614 O   0  0  0  0  0  0  0  0  0  0  0  0
  -15.2979   21.5982   73.1308 C   0  0  0  0  0  0  0  0  0  0  0  0
  -16.7546   22.1443   73.4003 C   0  0  0  0  0  0  0  0  0  0  0  0
  -15.4228   20.1446   73.6311 C   0  0  0  0  0  0  0  0  0  0  0  0
  -20.9021   21.0211   69.3124 O   0  0  0  0  0  0  0  0  0  0  0  0
  -17.3747   21.1381   74.5259 C   0  0  0  0  0  0  0  0  0  0  0  0
  -15.9917   21.8424   68.2536 C   0  0  0  0  0  0  0  0  0  0  0  0
  -12.9731   21.8800   73.4906 O   0  0  0  0  0  0  0  0  0  0  0  0
  -19.9557   21.4912   66.8118 C   0  0  0  0  0  0  0  0  0  0  0  0
  -16.4735   21.6130   75.6878 O   0  0  0  0  0  0  0  0  0  0  0  0
  -15.4079   21.2001   67.0574 C   0  0  0  0  0  0  0  0  0  0  0  0
  -20.1804   21.7062   68.2739 C   0  0  0  0  0  0  0  0  0  0  0  0
  -13.7568   22.9893   71.5953 C   0  0  0  0  0  0  0  0  0  0  0  0
  -16.2078   17.5781   75.2737 O   0  0  0  0  0  0  0  0  0  0  0  0
  -14.2948   22.5538   73.8284 C   0  0  0  0  0  0  0  0  0  0  0  0
  -18.2035   23.0090   67.5915 C   0  0  0  0  0  0  0  0  0  0  0  0
  -15.7484   19.6087   69.7326 C   0  0  0  0  0  0  0  0  0  0  0  0
  -14.7525   21.7985   71.6600 C   0  0  0  0  0  0  0  0  0  0  0  0
  -18.8799   19.8566   72.7525 C   0  0  0  0  0  0  0  0  0  0  0  0
  1  9  1  0
  1 10  1  0
  1 11  1  0
  2 23  1  0
  2 32  1  0
  3 12  1  0
  3 20  1  0
  3 22  1  0
  4 25  1  0
  4 32  1  0
  5 29  1  0
  6  9  1  0
  6 23  1  0
  6 33  1  0
  7 24  1  0
  7 29  1  0
  8 29  1  0
  8 31  1  0
  9 14  1  0
 10 35  1  0
 11 21  1  0
 12 15  1  0
 12 30  1  0
 13 34  1  0
 14 28  1  0
 14 32  1  0
 15 16  1  0
 15 17  1  0
 17 35  1  0
 18 19  1  0
 18 20  1  0
 18 31  1  0
 18 34  1  0
 19 22  1  0
 21 28  1  0
 22 26  1  0
 23 27  1  0
 24 31  1  0
 25 28  1  0
 29 34  1  0
M  END
>  <ID>  (1) 
conformer_0

$$$$
