
     RDKit          3D

 32 35  0  0  0  0  0  0  0  0999 V2000
  -14.5686   23.0990   70.7563 C   0  0  0  0  0  0  0  0  0  0  0  0
  -15.3957   22.8073   72.9938 C   0  0  0  0  0  0  0  0  0  0  0  0
  -14.5029   23.7577   73.4423 C   0  0  0  0  0  0  0  0  0  0  0  0
  -16.7325   21.5921   69.0377 C   0  0  0  0  0  0  0  0  0  0  0  0
  -13.6368   24.0429   71.1832 C   0  0  0  0  0  0  0  0  0  0  0  0
  -18.5444   17.0295   74.8096 O   0  0  0  0  0  0  0  0  0  0  0  0
  -21.5482   19.6501   67.5078 C   0  0  0  0  0  0  0  0  0  0  0  0
  -16.3799   17.0916   74.0179 O   0  0  0  0  0  0  0  0  0  0  0  0
  -15.6070   22.1688   66.6093 O   0  0  0  0  0  0  0  0  0  0  0  0
  -17.1867   21.2440   72.7585 C   0  0  0  0  0  0  0  0  0  0  0  0
  -15.4565   22.4969   71.6304 C   0  0  0  0  0  0  0  0  0  0  0  0
  -18.6373   21.2507   70.4851 C   0  0  0  0  0  0  0  0  0  0  0  0
  -16.3544   21.2231   74.9157 C   0  0  0  0  0  0  0  0  0  0  0  0
  -17.5206   21.6070   67.9102 C   0  0  0  0  0  0  0  0  0  0  0  0
  -17.3330   17.5642   74.8974 C   0  0  0  0  0  0  0  0  0  0  0  0
  -17.2901   21.4338   70.2930 C   0  0  0  0  0  0  0  0  0  0  0  0
  -22.0802   21.8375   68.5694 C   0  0  0  0  0  0  0  0  0  0  0  0
  -15.9189   19.5464   76.5849 O   0  0  0  0  0  0  0  0  0  0  0  0
  -18.5586   18.9216   73.0190 C   0  0  0  0  0  0  0  0  0  0  0  0
  -13.6189   24.3842   72.5539 C   0  0  0  0  0  0  0  0  0  0  0  0
  -16.8369   21.7617   66.6262 C   0  0  0  0  0  0  0  0  0  0  0  0
  -21.2867   21.1157   67.5509 N   0  0  0  0  0  0  0  0  0  0  0  0
  -19.4167   21.2429   69.3854 C   0  0  0  0  0  0  0  0  0  0  0  0
  -19.8597   19.2550   72.8815 O   0  0  0  0  0  0  0  0  0  0  0  0
  -17.4900   19.9291   73.2780 C   0  0  0  0  0  0  0  0  0  0  0  0
  -16.6854   19.8688   74.4577 N   0  0  0  0  0  0  0  0  0  0  0  0
  -19.9410   21.4509   67.0152 C   0  0  0  0  0  0  0  0  0  0  0  0
  -16.7423   18.8910   75.5321 C   0  0  0  0  0  0  0  0  0  0  0  0
  -17.4548   21.5811   65.5336 O   0  0  0  0  0  0  0  0  0  0  0  0
  -16.3916   22.0570   73.7501 C   0  0  0  0  0  0  0  0  0  0  0  0
  -18.9421   21.4233   68.1102 C   0  0  0  0  0  0  0  0  0  0  0  0
  -16.4487   21.4747   71.4729 C   0  0  0  0  0  0  0  0  0  0  0  0
  1  5  2  0
  1 11  1  0
  2  3  1  0
  2 11  2  0
  2 30  1  0
  3 20  2  0
  4 14  2  0
  4 16  1  0
  5 20  1  0
  6 15  2  0
  7 22  1  0
  8 15  1  0
  9 21  2  0
 10 25  1  0
 10 30  1  0
 10 32  1  0
 11 32  1  0
 12 16  2  0
 12 23  1  0
 13 26  1  0
 13 30  1  0
 14 21  1  0
 14 31  1  0
 15 28  1  0
 16 32  1  0
 17 22  1  0
 18 28  2  0
 19 24  1  0
 19 25  1  0
 21 29  1  0
 22 27  1  0
 23 31  2  0
 25 26  1  0
 26 28  1  0
 27 31  1  0
M  END
>  <ID>  (1) 
conformer_0

$$$$
