
     RDKit          3D

 23 25  0  0  0  0  0  0  0  0999 V2000
  -19.7351   21.8261   67.8967 C   0  0  0  0  0  0  0  0  0  0  0  0
  -16.8760   20.6583   75.6319 O   0  0  0  0  0  0  0  0  0  0  0  0
  -16.1938   19.9776   73.4644 C   0  0  0  0  0  0  0  0  0  0  0  0
  -16.9656   20.7737   70.4096 C   0  0  0  0  0  0  0  0  0  0  0  0
  -14.6787   21.1874   71.2227 O   0  0  0  0  0  0  0  0  0  0  0  0
  -17.8438   18.6059   74.8005 C   0  0  0  0  0  0  0  0  0  0  0  0
  -19.6218   18.4408   73.0649 O   0  0  0  0  0  0  0  0  0  0  0  0
  -18.5488   19.1957   73.5299 C   0  0  0  0  0  0  0  0  0  0  0  0
  -18.4575   21.7419   66.9718 C   0  0  0  0  0  0  0  0  0  0  0  0
  -16.5140   21.1798   72.7001 O   0  0  0  0  0  0  0  0  0  0  0  0
  -18.5694   20.9118   70.3588 C   0  0  0  0  0  0  0  0  0  0  0  0
  -19.0747   20.7559   68.8979 C   0  0  0  0  0  0  0  0  0  0  0  0
  -21.0722   19.6766   70.0670 O   0  0  0  0  0  0  0  0  0  0  0  0
  -15.9509   21.2165   71.3663 C   0  0  0  0  0  0  0  0  0  0  0  0
  -17.4002   19.5502   72.5598 C   0  0  0  0  0  0  0  0  0  0  0  0
  -17.8825   19.9301   71.1607 C   0  0  0  0  0  0  0  0  0  0  0  0
  -15.4026   20.5290   68.4932 O   0  0  0  0  0  0  0  0  0  0  0  0
  -20.2686   19.6749   68.8819 C   0  0  0  0  0  0  0  0  0  0  0  0
  -16.5903   20.8259   68.9724 C   0  0  0  0  0  0  0  0  0  0  0  0
  -17.5721   21.4352   68.1126 C   0  0  0  0  0  0  0  0  0  0  0  0
  -18.0186   17.1685   74.6909 O   0  0  0  0  0  0  0  0  0  0  0  0
  -15.5575   18.8138   75.4892 O   0  0  0  0  0  0  0  0  0  0  0  0
  -16.5434   19.5565   74.9059 C   0  0  0  0  0  0  0  0  0  0  0  0
  1  9  1  0
  1 12  1  0
  2 23  1  0
  3 10  1  0
  3 15  1  0
  3 23  1  0
  4 14  1  0
  4 16  1  0
  4 19  1  0
  5 14  2  0
  6  8  1  0
  6 21  1  0
  6 23  1  0
  7  8  1  0
  8 15  1  0
  9 20  1  0
 10 14  1  0
 11 12  1  0
 11 16  1  0
 12 18  1  0
 13 18  1  0
 15 16  1  0
 17 19  1  0
 19 20  1  0
 22 23  1  0
M  END
>  <ID>  (1) 
conformer_0

$$$$
