
     RDKit          3D

 26 29  0  0  0  0  0  0  0  0999 V2000
  -18.4576   18.0090   74.5434 N   0  0  0  0  0  0  0  0  0  0  0  0
  -13.4653   23.0198   73.0762 C   0  0  0  0  0  0  0  0  0  0  0  0
  -18.7203   20.4622   67.6351 C   0  0  0  0  0  0  0  0  0  0  0  0
  -17.2855   21.0105   70.2832 C   0  0  0  0  0  0  0  0  0  0  0  0
  -17.7497   19.9082   72.3542 C   0  0  0  0  0  0  0  0  0  0  0  0
  -15.1621   22.5630   71.3465 C   0  0  0  0  0  0  0  0  0  0  0  0
  -19.1021   20.0729   68.8745 C   0  0  0  0  0  0  0  0  0  0  0  0
  -20.2865   19.4565   69.0509 O   0  0  0  0  0  0  0  0  0  0  0  0
  -16.2532   18.3433   75.4946 O   0  0  0  0  0  0  0  0  0  0  0  0
  -19.4520   18.1626   73.5680 N   0  0  0  0  0  0  0  0  0  0  0  0
  -17.1641   18.6845   74.5961 C   0  0  0  0  0  0  0  0  0  0  0  0
  -15.4940   22.2650   67.3648 Cl  0  0  0  0  0  0  0  0  0  0  0  0
  -18.4149   16.8000   75.1384 O   0  0  0  0  0  0  0  0  0  0  0  0
  -15.4823   22.5440   70.0110 N   0  0  0  0  0  0  0  0  0  0  0  0
  -17.6165   21.1492   67.2226 C   0  0  0  0  0  0  0  0  0  0  0  0
  -18.4029   20.2095   70.0762 C   0  0  0  0  0  0  0  0  0  0  0  0
  -18.8275   19.5335   71.3165 C   0  0  0  0  0  0  0  0  0  0  0  0
  -16.0130   21.8577   72.2619 C   0  0  0  0  0  0  0  0  0  0  0  0
  -17.4760   21.3073   65.9387 O   0  0  0  0  0  0  0  0  0  0  0  0
  -16.5865   21.7056   68.0109 C   0  0  0  0  0  0  0  0  0  0  0  0
  -16.9972   20.9790   71.6544 C   0  0  0  0  0  0  0  0  0  0  0  0
  -14.4783   22.6382   73.9959 N   0  0  0  0  0  0  0  0  0  0  0  0
  -16.7191   19.1926   73.2877 C   0  0  0  0  0  0  0  0  0  0  0  0
  -15.5888   21.8190   73.6714 C   0  0  0  0  0  0  0  0  0  0  0  0
  -16.4955   21.7482   69.4128 C   0  0  0  0  0  0  0  0  0  0  0  0
  -13.8779   22.7192   71.7676 N   0  0  0  0  0  0  0  0  0  0  0  0
  1 10  1  0
  1 11  1  0
  1 13  1  0
  2 22  1  0
  2 26  1  0
  3  7  1  0
  3 15  2  0
  4 16  1  0
  4 21  2  0
  4 25  1  0
  5 17  1  0
  5 21  1  0
  5 23  1  0
  6 14  2  0
  6 18  1  0
  6 26  1  0
  7  8  1  0
  7 16  2  0
  9 11  2  0
 11 23  1  0
 12 20  1  0
 14 25  1  0
 15 19  1  0
 15 20  1  0
 16 17  1  0
 18 21  1  0
 18 24  2  0
 20 25  2  0
 22 24  1  0
M  END
>  <ID>  (1) 
conformer_0

$$$$
