
     RDKit          3D

 31 34  0  0  0  0  0  0  0  0999 V2000
  -19.0405   16.2632   74.3912 O   0  0  0  0  0  0  0  0  0  0  0  0
  -15.4046   19.5557   71.4393 O   0  0  0  0  0  0  0  0  0  0  0  0
  -16.6878   22.0344   68.6810 C   0  0  0  0  0  0  0  0  0  0  0  0
  -15.3765   20.7597   71.9476 C   0  0  0  0  0  0  0  0  0  0  0  0
  -16.3513   17.7403   75.4849 O   0  0  0  0  0  0  0  0  0  0  0  0
  -19.0492   22.2384   68.8061 C   0  0  0  0  0  0  0  0  0  0  0  0
  -16.8654   22.5136   65.9254 N   0  0  0  0  0  0  0  0  0  0  0  0
  -21.4006   21.2000   69.6603 C   0  0  0  0  0  0  0  0  0  0  0  0
  -14.3965   23.6736   70.2675 O   0  0  0  0  0  0  0  0  0  0  0  0
  -15.6448   21.7150   67.8399 C   0  0  0  0  0  0  0  0  0  0  0  0
  -20.2452   22.7748   68.3439 C   0  0  0  0  0  0  0  0  0  0  0  0
  -18.6510   18.5604   75.2731 N   0  0  0  0  0  0  0  0  0  0  0  0
  -15.7818   21.9128   66.5088 C   0  0  0  0  0  0  0  0  0  0  0  0
  -13.4009   24.3233   72.8387 C   0  0  0  0  0  0  0  0  0  0  0  0
  -17.7767   21.0640   70.5773 C   0  0  0  0  0  0  0  0  0  0  0  0
  -14.2899   22.1396   73.5792 C   0  0  0  0  0  0  0  0  0  0  0  0
  -17.4072   18.1228   74.6338 C   0  0  0  0  0  0  0  0  0  0  0  0
  -17.8766   22.4279   68.0577 C   0  0  0  0  0  0  0  0  0  0  0  0
  -14.1076   23.0784   72.5036 N   0  0  0  0  0  0  0  0  0  0  0  0
  -14.6762   22.9085   71.2379 C   0  0  0  0  0  0  0  0  0  0  0  0
  -17.8797   22.8274   66.7291 C   0  0  0  0  0  0  0  0  0  0  0  0
  -16.8374   19.4063   73.8714 C   0  0  0  0  0  0  0  0  0  0  0  0
  -21.4171   22.2532   68.7319 C   0  0  0  0  0  0  0  0  0  0  0  0
  -16.6171   21.8850   70.1017 C   0  0  0  0  0  0  0  0  0  0  0  0
  -17.7999   19.8220   72.9877 O   0  0  0  0  0  0  0  0  0  0  0  0
  -15.5277   21.8433   71.0649 N   0  0  0  0  0  0  0  0  0  0  0  0
  -15.0350   20.9757   73.3140 C   0  0  0  0  0  0  0  0  0  0  0  0
  -15.5828   19.9990   74.3512 C   0  0  0  0  0  0  0  0  0  0  0  0
  -20.2037   20.7715   70.2472 C   0  0  0  0  0  0  0  0  0  0  0  0
  -17.8413   16.9206   73.7596 C   0  0  0  0  0  0  0  0  0  0  0  0
  -19.0033   21.3571   69.8835 C   0  0  0  0  0  0  0  0  0  0  0  0
  1 30  1  0
  2  4  2  0
  3 10  1  0
  3 18  1  0
  3 24  1  0
  4 26  1  0
  4 27  1  0
  5 17  1  0
  6 11  1  0
  6 18  1  0
  6 31  1  0
  7 13  1  0
  7 21  2  0
  8 23  1  0
  8 29  1  0
  9 20  2  0
 10 13  2  0
 11 23  2  0
 12 17  1  0
 14 19  1  0
 15 24  1  0
 15 31  1  0
 16 19  1  0
 16 27  2  0
 17 22  1  0
 17 30  1  0
 18 21  1  0
 19 20  1  0
 20 26  1  0
 22 25  1  0
 22 28  1  0
 24 26  1  0
 27 28  1  0
 29 31  2  0
M  END
>  <ID>  (1) 
conformer_0

$$$$
