
     RDKit          3D

 27 29  0  0  0  0  0  0  0  0999 V2000
  -17.7982   17.3809   74.7314 C   0  0  0  0  0  0  0  0  0  0  0  0
  -15.9911   22.2497   74.1435 C   0  0  0  0  0  0  0  0  0  0  0  0
  -17.4036   18.9078   73.0098 C   0  0  0  0  0  0  0  0  0  0  0  0
  -15.5517   20.4478   68.1320 O   0  0  0  0  0  0  0  0  0  0  0  0
  -18.6927   20.1821   69.9140 C   0  0  0  0  0  0  0  0  0  0  0  0
  -19.1300   20.9517   67.7369 C   0  0  0  0  0  0  0  0  0  0  0  0
  -14.0642   22.0876   72.4368 N   0  0  0  0  0  0  0  0  0  0  0  0
  -17.3215   20.1909   69.6925 C   0  0  0  0  0  0  0  0  0  0  0  0
  -17.7674   21.0893   67.5164 C   0  0  0  0  0  0  0  0  0  0  0  0
  -17.4475   19.2083   71.7456 N   0  0  0  0  0  0  0  0  0  0  0  0
  -18.4762   16.3907   75.2221 O   0  0  0  0  0  0  0  0  0  0  0  0
  -16.4950   19.7022   70.8726 C   0  0  0  0  0  0  0  0  0  0  0  0
  -15.1101   20.0152   71.2916 C   0  0  0  0  0  0  0  0  0  0  0  0
  -16.0943   19.0642   74.9845 N   0  0  0  0  0  0  0  0  0  0  0  0
  -21.0180   20.0612   69.1047 C   0  0  0  0  0  0  0  0  0  0  0  0
  -16.4813   19.6125   73.8355 N   0  0  0  0  0  0  0  0  0  0  0  0
  -16.8703   20.6015   68.4374 C   0  0  0  0  0  0  0  0  0  0  0  0
  -13.3201   22.7398   73.4758 C   0  0  0  0  0  0  0  0  0  0  0  0
  -16.0298   20.9270   73.3592 C   0  0  0  0  0  0  0  0  0  0  0  0
  -18.1546   17.8810   73.5131 C   0  0  0  0  0  0  0  0  0  0  0  0
  -14.7341   20.8337   72.5289 C   0  0  0  0  0  0  0  0  0  0  0  0
  -17.3231   21.8049   66.3989 Cl  0  0  0  0  0  0  0  0  0  0  0  0
  -21.4663   19.8314   70.3164 N   0  0  0  0  0  0  0  0  0  0  0  0
  -21.7137   19.8793   68.0752 O   0  0  0  0  0  0  0  0  0  0  0  0
  -14.4313   22.9572   71.3453 C   0  0  0  0  0  0  0  0  0  0  0  0
  -16.7340   17.9713   75.4119 N   0  0  0  0  0  0  0  0  0  0  0  0
  -19.6166   20.4297   68.9290 C   0  0  0  0  0  0  0  0  0  0  0  0
  1 11  2  0
  1 20  1  0
  1 26  1  0
  2 19  1  0
  3 10  1  0
  3 16  1  0
  3 20  2  0
  4 17  1  0
  5  8  2  0
  5 27  1  0
  6  9  1  0
  6 27  2  0
  7 18  1  0
  7 21  1  0
  7 25  1  0
  8 12  1  0
  8 17  1  0
  9 17  2  0
  9 22  1  0
 10 12  2  0
 12 13  1  0
 13 21  1  0
 14 16  1  0
 14 26  2  0
 15 23  1  0
 15 24  2  0
 15 27  1  0
 16 19  1  0
 19 21  1  0
M  END
>  <ID>  (1) 
conformer_0

$$$$
