
     RDKit          3D

 24 24  0  0  0  0  0  0  0  0999 V2000
  -19.3959   21.3954   71.2947 O   0  0  0  0  0  0  0  0  0  0  0  0
  -16.9745   20.9142   71.4730 C   0  0  0  0  0  0  0  0  0  0  0  0
  -17.6607   18.6387   73.9039 C   0  0  0  0  0  0  0  0  0  0  0  0
  -19.8686   19.1394   72.9016 O   0  0  0  0  0  0  0  0  0  0  0  0
  -14.0106   22.7856   72.7582 O   0  0  0  0  0  0  0  0  0  0  0  0
  -17.8666   20.9104   66.9604 C   0  0  0  0  0  0  0  0  0  0  0  0
  -14.7211   22.0875   70.5554 O   0  0  0  0  0  0  0  0  0  0  0  0
  -18.1167   21.4988   70.7125 C   0  0  0  0  0  0  0  0  0  0  0  0
  -17.2746   17.4394   74.7492 C   0  0  0  0  0  0  0  0  0  0  0  0
  -15.6740   19.4250   75.6015 O   0  0  0  0  0  0  0  0  0  0  0  0
  -18.0674   21.7200   69.2972 C   0  0  0  0  0  0  0  0  0  0  0  0
  -18.0625   23.2955   67.4000 C   0  0  0  0  0  0  0  0  0  0  0  0
  -17.9230   20.6820   68.3555 C   0  0  0  0  0  0  0  0  0  0  0  0
  -15.4154   20.6651   73.5142 O   0  0  0  0  0  0  0  0  0  0  0  0
  -18.0963   23.0318   68.7715 C   0  0  0  0  0  0  0  0  0  0  0  0
  -18.5046   16.6498   74.9704 O   0  0  0  0  0  0  0  0  0  0  0  0
  -18.0120   22.5374   65.0475 C   0  0  0  0  0  0  0  0  0  0  0  0
  -17.6016   20.1163   74.2793 C   0  0  0  0  0  0  0  0  0  0  0  0
  -16.1844   20.5044   74.7574 C   0  0  0  0  0  0  0  0  0  0  0  0
  -17.9686   22.2305   66.4757 C   0  0  0  0  0  0  0  0  0  0  0  0
  -18.8030   18.2158   72.9660 C   0  0  0  0  0  0  0  0  0  0  0  0
  -16.0091   21.5545   72.4817 C   0  0  0  0  0  0  0  0  0  0  0  0
  -16.9064   19.5196   71.4269 O   0  0  0  0  0  0  0  0  0  0  0  0
  -14.8114   22.2548   71.8423 C   0  0  0  0  0  0  0  0  0  0  0  0
  1  8  1  0
  2  8  1  0
  2 22  1  0
  2 23  1  0
  3  9  1  0
  3 18  1  0
  3 21  1  0
  4 21  1  0
  5 24  2  0
  6 13  2  0
  6 20  1  0
  7 24  1  0
  8 11  1  0
  9 16  1  0
 10 19  1  0
 11 13  1  0
 11 15  2  0
 12 15  1  0
 12 20  2  0
 14 19  1  0
 14 22  1  0
 17 20  1  0
 18 19  1  0
 22 24  1  0
M  END
>  <ID>  (1) 
conformer_0

$$$$
