
     RDKit          3D

 25 27  0  0  0  0  0  0  0  0999 V2000
  -17.8613   17.4132   74.4131 C   0  0  0  0  0  0  0  0  0  0  0  0
  -16.7050   17.3513   74.9583 O   0  0  0  0  0  0  0  0  0  0  0  0
  -16.0885   21.8460   66.9324 C   0  0  0  0  0  0  0  0  0  0  0  0
  -18.7557   16.5017   74.6007 O   0  0  0  0  0  0  0  0  0  0  0  0
  -18.5634   22.0952   66.9111 C   0  0  0  0  0  0  0  0  0  0  0  0
  -18.6532   21.0434   69.5601 C   0  0  0  0  0  0  0  0  0  0  0  0
  -17.4369   21.2643   68.8706 C   0  0  0  0  0  0  0  0  0  0  0  0
  -16.8028   19.9004   74.2093 C   0  0  0  0  0  0  0  0  0  0  0  0
  -15.5872   20.8960   74.2037 C   0  0  0  0  0  0  0  0  0  0  0  0
  -19.8120   21.4523   68.8839 C   0  0  0  0  0  0  0  0  0  0  0  0
  -19.3501   20.9229   71.8493 O   0  0  0  0  0  0  0  0  0  0  0  0
  -17.3691   21.7318   67.5592 C   0  0  0  0  0  0  0  0  0  0  0  0
  -18.5422   22.5966   65.6309 N   0  0  0  0  0  0  0  0  0  0  0  0
  -14.9022   23.3399   73.6575 C   0  0  0  0  0  0  0  0  0  0  0  0
  -18.5340   20.3868   70.8743 C   0  0  0  0  0  0  0  0  0  0  0  0
  -19.7716   21.9700   67.5973 N   0  0  0  0  0  0  0  0  0  0  0  0
  -14.7972   21.2463   71.4723 C   0  0  0  0  0  0  0  0  0  0  0  0
  -16.2182   21.0105   69.4844 N   0  0  0  0  0  0  0  0  0  0  0  0
  -13.5222   22.7654   73.3433 C   0  0  0  0  0  0  0  0  0  0  0  0
  -17.0912   19.2332   72.8056 C   0  0  0  0  0  0  0  0  0  0  0  0
  -16.1288   20.7021   70.8195 C   0  0  0  0  0  0  0  0  0  0  0  0
  -18.1560   18.1503   73.0829 C   0  0  0  0  0  0  0  0  0  0  0  0
  -13.6154   21.5419   72.4408 C   0  0  0  0  0  0  0  0  0  0  0  0
  -17.2201   19.8869   71.4000 C   0  0  0  0  0  0  0  0  0  0  0  0
  -16.0253   22.2933   73.5951 C   0  0  0  0  0  0  0  0  0  0  0  0
  1  2  2  0
  1  4  1  0
  1 22  1  0
  3 12  1  0
  5 12  1  0
  5 13  2  0
  5 16  1  0
  6  7  1  0
  6 10  1  0
  6 15  1  0
  7 12  1  0
  7 18  2  0
  8  9  1  0
  8 20  1  0
  9 25  1  0
 10 16  2  0
 11 15  1  0
 14 19  1  0
 14 25  1  0
 15 24  1  0
 17 21  2  0
 17 23  2  0
 18 21  1  0
 19 23  1  0
 20 22  1  0
 20 24  1  0
 21 24  1  0
M  END
>  <ID>  (1) 
conformer_0

$$$$
