
     RDKit          3D

 21 23  0  0  0  0  0  0  0  0999 V2000
  -18.4955   20.8126   73.0129 C   0  0  0  0  0  0  0  0  0  0  0  0
  -16.2088   20.1272   74.8910 C   0  0  0  0  0  0  0  0  0  0  0  0
  -18.0448   21.9728   72.0535 C   0  0  0  0  0  0  0  0  0  0  0  0
  -15.8329   19.6884   69.7289 C   0  0  0  0  0  0  0  0  0  0  0  0
  -17.9625   20.1046   67.5177 C   0  0  0  0  0  0  0  0  0  0  0  0
  -16.9460   20.3765   68.7072 C   0  0  0  0  0  0  0  0  0  0  0  0
  -19.4867   20.1566   69.8249 C   0  0  0  0  0  0  0  0  0  0  0  0
  -17.2427   19.9644   73.6974 C   0  0  0  0  0  0  0  0  0  0  0  0
  -15.7069   19.1316   75.4508 O   0  0  0  0  0  0  0  0  0  0  0  0
  -18.9269   16.6495   74.0667 O   0  0  0  0  0  0  0  0  0  0  0  0
  -18.2346   18.9309   74.3990 C   0  0  0  0  0  0  0  0  0  0  0  0
  -16.2415   21.3110   75.3525 O   0  0  0  0  0  0  0  0  0  0  0  0
  -16.6759   22.8316   68.1375 C   0  0  0  0  0  0  0  0  0  0  0  0
  -17.8634   17.5139   74.7408 C   0  0  0  0  0  0  0  0  0  0  0  0
  -17.7264   22.8842   69.2687 C   0  0  0  0  0  0  0  0  0  0  0  0
  -16.2351   20.0248   72.3976 C   0  0  0  0  0  0  0  0  0  0  0  0
  -16.0594   21.4961   67.9958 C   0  0  0  0  0  0  0  0  0  0  0  0
  -14.9276   21.1424   67.5580 O   0  0  0  0  0  0  0  0  0  0  0  0
  -17.7821   21.9531   70.5157 C   0  0  0  0  0  0  0  0  0  0  0  0
  -16.9935   19.6180   71.0119 C   0  0  0  0  0  0  0  0  0  0  0  0
  -17.9797   20.4717   70.0428 C   0  0  0  0  0  0  0  0  0  0  0  0
  1  3  1  0
  1  8  1  0
  2  8  1  0
  2  9  2  0
  2 12  1  0
  3 19  1  0
  4  6  1  0
  4 20  1  0
  5  6  1  0
  6 17  1  0
  6 21  1  0
  7 21  1  0
  8 11  1  0
  8 16  1  0
 10 14  1  0
 11 14  1  0
 13 15  1  0
 13 17  1  0
 15 19  1  0
 16 20  1  0
 17 18  2  0
 19 21  1  0
 20 21  1  0
M  END
>  <ID>  (1) 
conformer_0

$$$$
