
     RDKit          3D

 24 25  0  0  0  0  0  0  0  0999 V2000
  -15.7595   22.9043   73.1567 C   0  0  0  0  0  0  0  0  0  0  0  0
  -18.7377   16.4492   73.9349 O   0  0  0  0  0  0  0  0  0  0  0  0
  -20.3149   19.3859   68.5401 N   0  0  0  0  0  0  0  0  0  0  0  0
  -18.7706   20.7194   69.6418 C   0  0  0  0  0  0  0  0  0  0  0  0
  -18.6644   20.5085   67.2868 N   0  0  0  0  0  0  0  0  0  0  0  0
  -13.0429   22.4406   72.6815 O   0  0  0  0  0  0  0  0  0  0  0  0
  -17.6792   17.2376   73.9150 C   0  0  0  0  0  0  0  0  0  0  0  0
  -16.1104   20.6884   73.2579 C   0  0  0  0  0  0  0  0  0  0  0  0
  -14.4310   22.3222   72.7226 C   0  0  0  0  0  0  0  0  0  0  0  0
  -18.3548   19.9362   72.5079 O   0  0  0  0  0  0  0  0  0  0  0  0
  -17.9557   21.2591   71.8189 C   0  0  0  0  0  0  0  0  0  0  0  0
  -18.0449   18.8197   73.7446 C   0  0  0  0  0  0  0  0  0  0  0  0
  -18.5885   19.0232   75.1182 O   0  0  0  0  0  0  0  0  0  0  0  0
  -17.0196   22.0024   68.3007 C   0  0  0  0  0  0  0  0  0  0  0  0
  -16.9907   22.1740   69.5989 N   0  0  0  0  0  0  0  0  0  0  0  0
  -17.5749   21.3562   67.1868 C   0  0  0  0  0  0  0  0  0  0  0  0
  -14.7036   20.7721   72.7632 C   0  0  0  0  0  0  0  0  0  0  0  0
  -17.0527   21.5247   66.0743 O   0  0  0  0  0  0  0  0  0  0  0  0
  -16.8512   21.8002   72.6857 O   0  0  0  0  0  0  0  0  0  0  0  0
  -16.5504   19.3547   73.8930 C   0  0  0  0  0  0  0  0  0  0  0  0
  -17.9393   21.4012   70.3746 N   0  0  0  0  0  0  0  0  0  0  0  0
  -14.5605   20.1901   71.5432 O   0  0  0  0  0  0  0  0  0  0  0  0
  -19.2294   20.2121   68.4919 C   0  0  0  0  0  0  0  0  0  0  0  0
  -16.7281   16.9755   74.8007 O   0  0  0  0  0  0  0  0  0  0  0  0
  1  9  1  0
  2  7  2  0
  3 23  2  0
  4 21  1  0
  4 23  1  0
  5 16  1  0
  5 23  1  0
  6  9  1  0
  7 12  1  0
  7 24  1  0
  8 17  1  0
  8 19  1  0
  8 20  1  0
  9 17  1  0
 10 11  1  0
 10 12  1  0
 11 19  1  0
 11 21  1  0
 12 13  1  0
 12 20  1  0
 14 15  2  0
 14 16  1  0
 15 21  1  0
 16 18  2  0
 17 22  1  0
M  END
>  <ID>  (1) 
conformer_0

$$$$
