
     RDKit          3D

 34 36  0  0  0  0  0  0  0  0999 V2000
  -16.1293   20.3862   73.8271 C   0  0  0  0  0  0  0  0  0  0  0  0
  -14.2407   23.1541   68.7963 C   0  0  0  0  0  0  0  0  0  0  0  0
  -15.2939   21.6254   74.0302 C   0  0  0  0  0  0  0  0  0  0  0  0
  -13.2613   24.5024   71.6256 C   0  0  0  0  0  0  0  0  0  0  0  0
  -12.6754   24.9752   70.4398 O   0  0  0  0  0  0  0  0  0  0  0  0
  -14.1451   23.2713   71.3970 C   0  0  0  0  0  0  0  0  0  0  0  0
  -14.1730   21.3908   67.3429 O   0  0  0  0  0  0  0  0  0  0  0  0
  -18.8240   20.1752   71.1039 C   0  0  0  0  0  0  0  0  0  0  0  0
  -16.2928   21.7012   66.7042 O   0  0  0  0  0  0  0  0  0  0  0  0
  -18.0119   19.9704   72.4039 C   0  0  0  0  0  0  0  0  0  0  0  0
  -17.5564   18.4997   74.4288 C   0  0  0  0  0  0  0  0  0  0  0  0
  -16.6453   20.1013   72.5873 O   0  0  0  0  0  0  0  0  0  0  0  0
  -20.4182   23.1693   67.3510 C   0  0  0  0  0  0  0  0  0  0  0  0
  -17.8111   22.8626   68.1645 O   0  0  0  0  0  0  0  0  0  0  0  0
  -19.0304   16.6016   73.9813 N   0  0  0  0  0  0  0  0  0  0  0  0
  -18.1596   20.5801   68.7668 O   0  0  0  0  0  0  0  0  0  0  0  0
  -18.6014   19.0210   73.4053 C   0  0  0  0  0  0  0  0  0  0  0  0
  -20.1321   22.0422   68.3221 C   0  0  0  0  0  0  0  0  0  0  0  0
  -18.4596   21.2267   69.9308 C   0  0  0  0  0  0  0  0  0  0  0  0
  -16.6429   19.5689   74.9363 C   0  0  0  0  0  0  0  0  0  0  0  0
  -13.2252   22.7904   73.5829 O   0  0  0  0  0  0  0  0  0  0  0  0
  -15.6868   19.3245   75.8781 O   0  0  0  0  0  0  0  0  0  0  0  0
  -20.9806   20.9334   68.9085 C   0  0  0  0  0  0  0  0  0  0  0  0
  -18.0533   17.2053   74.9008 C   0  0  0  0  0  0  0  0  0  0  0  0
  -20.7030   22.4014   66.1256 O   0  0  0  0  0  0  0  0  0  0  0  0
  -18.6570   21.7052   68.3327 C   0  0  0  0  0  0  0  0  0  0  0  0
  -13.3927   22.1786   72.2081 C   0  0  0  0  0  0  0  0  0  0  0  0
  -16.4293   22.5914   68.4198 C   0  0  0  0  0  0  0  0  0  0  0  0
  -16.0495   22.1569   69.8275 C   0  0  0  0  0  0  0  0  0  0  0  0
  -20.7107   19.5811   68.4112 O   0  0  0  0  0  0  0  0  0  0  0  0
  -14.6476   23.0318   73.9481 C   0  0  0  0  0  0  0  0  0  0  0  0
  -14.8428   22.9468   70.1954 O   0  0  0  0  0  0  0  0  0  0  0  0
  -17.3228   22.0048   70.6015 C   0  0  0  0  0  0  0  0  0  0  0  0
  -15.1877   22.3908   67.6041 C   0  0  0  0  0  0  0  0  0  0  0  0
  1  3  1  0
  1 12  1  0
  1 20  1  0
  2 34  1  0
  3 31  1  0
  4  5  1  0
  4  6  1  0
  6 27  1  0
  6 32  1  0
  7 34  1  0
  8 10  1  0
  8 19  1  0
  9 34  1  0
 10 12  1  0
 10 17  1  0
 11 17  1  0
 11 20  1  0
 11 24  1  0
 13 18  1  0
 13 25  1  0
 14 26  1  0
 14 28  1  0
 15 24  1  0
 16 19  1  0
 16 26  1  0
 18 23  1  0
 18 26  1  0
 19 33  1  0
 20 22  1  0
 21 27  1  0
 21 31  1  0
 23 30  1  0
 28 29  1  0
 28 34  1  0
 29 32  1  0
 29 33  1  0
M  END
>  <ID>  (1) 
conformer_0

$$$$
