
     RDKit          3D

 26 26  0  0  0  0  0  0  0  0999 V2000
  -14.5033   23.1655   71.2777 C   0  0  0  0  0  0  0  0  0  0  0  0
  -14.9794   21.2276   68.7390 O   0  0  0  0  0  0  0  0  0  0  0  0
  -17.1419   21.9599   66.5120 O   0  0  0  0  0  0  0  0  0  0  0  0
  -16.6600   17.3917   74.7293 O   0  0  0  0  0  0  0  0  0  0  0  0
  -18.7254   16.5719   74.3601 N   0  0  0  0  0  0  0  0  0  0  0  0
  -17.1740   20.1512   70.7892 C   0  0  0  0  0  0  0  0  0  0  0  0
  -16.1265   20.9313   71.5162 O   0  0  0  0  0  0  0  0  0  0  0  0
  -20.4120   21.5440   69.3342 C   0  0  0  0  0  0  0  0  0  0  0  0
  -16.0633   20.7347   68.5022 C   0  0  0  0  0  0  0  0  0  0  0  0
  -14.8600   21.9532   73.4708 C   0  0  0  0  0  0  0  0  0  0  0  0
  -21.6476   21.1655   69.6813 O   0  0  0  0  0  0  0  0  0  0  0  0
  -13.9506   22.2144   72.2974 C   0  0  0  0  0  0  0  0  0  0  0  0
  -19.4075   20.9960   70.0914 C   0  0  0  0  0  0  0  0  0  0  0  0
  -17.4161   21.2264   68.6772 C   0  0  0  0  0  0  0  0  0  0  0  0
  -17.8695   17.6061   74.5387 C   0  0  0  0  0  0  0  0  0  0  0  0
  -18.0748   20.8508   69.8564 C   0  0  0  0  0  0  0  0  0  0  0  0
  -16.2382   21.4481   72.8888 C   0  0  0  0  0  0  0  0  0  0  0  0
  -17.9292   19.5981   73.1873 C   0  0  0  0  0  0  0  0  0  0  0  0
  -19.1617   22.5553   67.4691 C   0  0  0  0  0  0  0  0  0  0  0  0
  -15.7605   19.5971   76.0873 O   0  0  0  0  0  0  0  0  0  0  0  0
  -20.2529   22.3575   68.2161 C   0  0  0  0  0  0  0  0  0  0  0  0
  -16.3391   20.5611   75.2298 C   0  0  0  0  0  0  0  0  0  0  0  0
  -16.5777   20.1333   73.7512 C   0  0  0  0  0  0  0  0  0  0  0  0
  -12.5964   22.5046   72.6874 C   0  0  0  0  0  0  0  0  0  0  0  0
  -17.9334   21.9369   67.5650 C   0  0  0  0  0  0  0  0  0  0  0  0
  -18.6455   18.8935   74.2688 C   0  0  0  0  0  0  0  0  0  0  0  0
  1 12  1  0
  2  9  2  0
  3 25  1  0
  4 15  2  0
  5 15  1  0
  6  7  1  0
  6 16  1  0
  7 17  1  0
  8 11  1  0
  8 13  2  0
  8 21  1  0
  9 14  1  0
 10 12  1  0
 10 17  1  0
 12 24  1  0
 13 16  1  0
 14 16  1  0
 14 25  2  0
 15 26  1  0
 17 23  1  0
 18 23  1  0
 18 26  1  0
 19 21  2  0
 19 25  1  0
 20 22  1  0
 22 23  1  0
M  END
>  <ID>  (1) 
conformer_0

$$$$
