
     RDKit          3D

 27 31  0  0  0  0  0  0  0  0999 V2000
  -16.4029   19.4726   74.2602 C   0  0  0  0  0  0  0  0  0  0  0  0
  -16.9854   20.5256   72.1045 C   0  0  0  0  0  0  0  0  0  0  0  0
  -14.4823   21.2082   72.1804 S   0  0  0  0  0  0  0  0  0  0  0  0
  -15.8976   21.6851   74.3682 C   0  0  0  0  0  0  0  0  0  0  0  0
  -20.3326   22.9817   67.0656 O   0  0  0  0  0  0  0  0  0  0  0  0
  -18.2092   23.9240   67.0908 C   0  0  0  0  0  0  0  0  0  0  0  0
  -16.1248   20.1893   76.4537 O   0  0  0  0  0  0  0  0  0  0  0  0
  -17.6838   18.1717   72.6138 C   0  0  0  0  0  0  0  0  0  0  0  0
  -18.1875   19.6244   72.3517 C   0  0  0  0  0  0  0  0  0  0  0  0
  -15.1428   20.4329   67.8436 O   0  0  0  0  0  0  0  0  0  0  0  0
  -19.4665   21.8921   67.1949 C   0  0  0  0  0  0  0  0  0  0  0  0
  -17.0271   18.2001   74.0105 C   0  0  0  0  0  0  0  0  0  0  0  0
  -17.2645   21.7198   68.1156 C   0  0  0  0  0  0  0  0  0  0  0  0
  -15.3707   21.5715   70.5933 C   0  0  0  0  0  0  0  0  0  0  0  0
  -14.9953   22.8315   67.6433 C   0  0  0  0  0  0  0  0  0  0  0  0
  -19.4533   20.7525   68.1323 C   0  0  0  0  0  0  0  0  0  0  0  0
  -15.8193   20.4317   73.1332 C   0  0  0  0  0  0  0  0  0  0  0  0
  -16.6365   20.5925   70.6187 C   0  0  0  0  0  0  0  0  0  0  0  0
  -18.0065   20.4549   68.4572 C   0  0  0  0  0  0  0  0  0  0  0  0
  -17.6733   19.8623   69.7512 C   0  0  0  0  0  0  0  0  0  0  0  0
  -18.8833   16.7276   74.2665 N   0  0  0  0  0  0  0  0  0  0  0  0
  -16.6799   22.7121   73.7600 O   0  0  0  0  0  0  0  0  0  0  0  0
  -19.6035   24.1937   66.5596 C   0  0  0  0  0  0  0  0  0  0  0  0
  -18.1297   22.4780   67.2583 N   0  0  0  0  0  0  0  0  0  0  0  0
  -17.8081   17.3969   74.9560 C   0  0  0  0  0  0  0  0  0  0  0  0
  -16.7998   20.6542   75.2346 C   0  0  0  0  0  0  0  0  0  0  0  0
  -15.7650   21.6371   67.8538 C   0  0  0  0  0  0  0  0  0  0  0  0
  1 12  1  0
  1 17  1  0
  1 26  1  0
  2  9  1  0
  2 17  1  0
  2 18  1  0
  3 14  1  0
  3 17  1  0
  4 17  1  0
  4 22  1  0
  4 26  1  0
  5 11  1  0
  5 23  1  0
  6 23  1  0
  6 24  1  0
  7 26  1  0
  8  9  1  0
  8 12  1  0
 10 27  1  0
 11 16  1  0
 11 24  1  0
 12 25  1  0
 13 19  1  0
 13 24  1  0
 13 27  1  0
 14 18  1  0
 15 27  1  0
 16 19  1  0
 18 20  1  0
 19 20  1  0
 21 25  1  0
M  END
>  <ID>  (1) 
conformer_0

$$$$
