
     RDKit          3D

 21 23  0  0  0  0  0  0  0  0999 V2000
  -17.7007   20.0975   71.7044 C   0  0  0  0  0  0  0  0  0  0  0  0
  -14.9002   21.8415   73.6396 C   0  0  0  0  0  0  0  0  0  0  0  0
  -17.7539   17.3251   74.6482 C   0  0  0  0  0  0  0  0  0  0  0  0
  -16.2140   21.6370   70.5085 C   0  0  0  0  0  0  0  0  0  0  0  0
  -18.2820   18.1171   73.5000 C   0  0  0  0  0  0  0  0  0  0  0  0
  -16.3737   22.1617   67.4697 C   0  0  0  0  0  0  0  0  0  0  0  0
  -17.5645   19.3319   73.0343 C   0  0  0  0  0  0  0  0  0  0  0  0
  -15.1829   21.1840   67.6666 C   0  0  0  0  0  0  0  0  0  0  0  0
  -16.4546   20.9381   71.7985 C   0  0  0  0  0  0  0  0  0  0  0  0
  -17.4019   21.3489   69.6527 C   0  0  0  0  0  0  0  0  0  0  0  0
  -17.5884   21.7815   68.3503 C   0  0  0  0  0  0  0  0  0  0  0  0
  -15.8799   20.8908   73.0635 N   0  0  0  0  0  0  0  0  0  0  0  0
  -16.2363   19.7382   75.1327 O   0  0  0  0  0  0  0  0  0  0  0  0
  -18.8971   21.7852   67.8390 C   0  0  0  0  0  0  0  0  0  0  0  0
  -18.3344   20.5899   70.3952 C   0  0  0  0  0  0  0  0  0  0  0  0
  -15.1903   22.3603   70.3018 N   0  0  0  0  0  0  0  0  0  0  0  0
  -16.4986   19.9444   73.8259 C   0  0  0  0  0  0  0  0  0  0  0  0
  -19.9338   21.1600   68.5697 C   0  0  0  0  0  0  0  0  0  0  0  0
  -13.8527   21.8171   67.5930 O   0  0  0  0  0  0  0  0  0  0  0  0
  -19.6485   20.5341   69.8143 C   0  0  0  0  0  0  0  0  0  0  0  0
  -19.6436   18.2163   73.3606 O   0  0  0  0  0  0  0  0  0  0  0  0
  1  7  1  0
  1  9  2  0
  1 15  1  0
  2 12  1  0
  3  5  1  0
  4  9  1  0
  4 10  1  0
  4 16  2  0
  5  7  1  0
  5 21  1  0
  6  8  1  0
  6 11  1  0
  7 17  1  0
  8 19  1  0
  9 12  1  0
 10 11  1  0
 10 15  2  0
 11 14  2  0
 12 17  1  0
 13 17  2  0
 14 18  1  0
 15 20  1  0
 18 20  2  0
M  END
>  <ID>  (1) 
conformer_0

$$$$
