
     RDKit          3D

 23 24  0  0  0  0  0  0  0  0999 V2000
  -17.8926   20.3369   70.7209 C   0  0  0  0  0  0  0  0  0  0  0  0
  -16.4137   19.8561   73.1105 C   0  0  0  0  0  0  0  0  0  0  0  0
  -17.7546   22.0885   66.0738 C   0  0  0  0  0  0  0  0  0  0  0  0
  -16.3955   19.6047   75.5866 O   0  0  0  0  0  0  0  0  0  0  0  0
  -18.1109   23.3871   66.6095 C   0  0  0  0  0  0  0  0  0  0  0  0
  -18.6964   19.5049   72.9420 O   0  0  0  0  0  0  0  0  0  0  0  0
  -16.6883   17.0726   75.2553 O   0  0  0  0  0  0  0  0  0  0  0  0
  -18.3416   23.4637   67.9417 C   0  0  0  0  0  0  0  0  0  0  0  0
  -17.2175   19.2721   74.4253 C   0  0  0  0  0  0  0  0  0  0  0  0
  -18.6659   17.1592   73.9443 O   0  0  0  0  0  0  0  0  0  0  0  0
  -15.5824   21.0595   73.6898 N   0  0  0  0  0  0  0  0  0  0  0  0
  -17.5080   17.7350   74.4300 C   0  0  0  0  0  0  0  0  0  0  0  0
  -17.7403   21.1150   68.3828 C   0  0  0  0  0  0  0  0  0  0  0  0
  -14.6244   21.5678   72.8086 C   0  0  0  0  0  0  0  0  0  0  0  0
  -17.5182   19.4381   71.9692 C   0  0  0  0  0  0  0  0  0  0  0  0
  -14.5014   21.0915   71.6690 O   0  0  0  0  0  0  0  0  0  0  0  0
  -18.5703   21.5124   71.0163 C   0  0  0  0  0  0  0  0  0  0  0  0
  -18.7021   22.5019   70.1061 C   0  0  0  0  0  0  0  0  0  0  0  0
  -17.6763   21.9598   64.7896 O   0  0  0  0  0  0  0  0  0  0  0  0
  -18.2517   22.3554   68.8057 C   0  0  0  0  0  0  0  0  0  0  0  0
  -17.5237   20.1041   69.3655 C   0  0  0  0  0  0  0  0  0  0  0  0
  -13.8974   22.7814   73.2582 C   0  0  0  0  0  0  0  0  0  0  0  0
  -17.5205   20.9823   66.9887 C   0  0  0  0  0  0  0  0  0  0  0  0
  1 15  1  0
  1 17  2  0
  1 21  1  0
  2  9  1  0
  2 11  1  0
  2 15  1  0
  3  5  1  0
  3 19  1  0
  3 23  2  0
  4  9  1  0
  5  8  2  0
  6 15  1  0
  7 12  2  0
  8 20  1  0
  9 12  1  0
 10 12  1  0
 11 14  1  0
 13 20  1  0
 13 21  2  0
 13 23  1  0
 14 16  2  0
 14 22  1  0
 17 18  1  0
 18 20  2  0
M  END
>  <ID>  (1) 
conformer_0

$$$$
