
     RDKit          3D

 22 22  0  0  0  0  0  0  0  0999 V2000
  -17.1817   20.7997   67.2588 C   0  0  0  0  0  0  0  0  0  0  0  0
  -17.2544   22.3836   73.4143 C   0  0  0  0  0  0  0  0  0  0  0  0
  -17.4400   20.8287   65.8912 O   0  0  0  0  0  0  0  0  0  0  0  0
  -15.3298   21.5206   71.2369 C   0  0  0  0  0  0  0  0  0  0  0  0
  -18.5284   19.3899   73.6719 C   0  0  0  0  0  0  0  0  0  0  0  0
  -19.2082   17.1356   73.3362 O   0  0  0  0  0  0  0  0  0  0  0  0
  -16.4398   17.9248   75.2883 O   0  0  0  0  0  0  0  0  0  0  0  0
  -13.1210   23.6580   73.3103 O   0  0  0  0  0  0  0  0  0  0  0  0
  -18.1206   16.4836   75.7874 O   0  0  0  0  0  0  0  0  0  0  0  0
  -18.5412   20.6833   67.9358 C   0  0  0  0  0  0  0  0  0  0  0  0
  -15.7034   20.9388   67.4480 C   0  0  0  0  0  0  0  0  0  0  0  0
  -17.6531   17.5137   75.1235 C   0  0  0  0  0  0  0  0  0  0  0  0
  -17.5226   20.9863   70.0809 C   0  0  0  0  0  0  0  0  0  0  0  0
  -18.2093   20.3990   71.3311 C   0  0  0  0  0  0  0  0  0  0  0  0
  -15.8975   21.8565   72.6578 C   0  0  0  0  0  0  0  0  0  0  0  0
  -17.5153   19.5472   72.4353 C   0  0  0  0  0  0  0  0  0  0  0  0
  -15.1047   21.2655   68.7456 C   0  0  0  0  0  0  0  0  0  0  0  0
  -16.0751   21.2094   69.8638 C   0  0  0  0  0  0  0  0  0  0  0  0
  -13.4920   22.3514   72.9998 C   0  0  0  0  0  0  0  0  0  0  0  0
  -18.5862   21.5655   69.1828 C   0  0  0  0  0  0  0  0  0  0  0  0
  -14.7882   22.0697   73.5940 N   0  0  0  0  0  0  0  0  0  0  0  0
  -18.5024   17.9989   74.1096 C   0  0  0  0  0  0  0  0  0  0  0  0
  1  3  1  0
  1 10  1  0
  1 11  2  0
  2 15  1  0
  4 15  1  0
  4 18  2  3
  5 16  1  0
  5 22  1  0
  6 22  1  0
  7 12  2  0
  8 19  1  0
  9 12  1  0
 10 20  1  0
 11 17  1  0
 12 22  1  0
 13 14  1  0
 13 18  1  0
 13 20  1  0
 14 16  1  0
 15 21  1  0
 17 18  1  0
 19 21  1  0
M  END
>  <ID>  (1) 
conformer_0

$$$$
