
     RDKit          3D

 30 31  0  0  0  0  0  0  0  0999 V2000
  -13.4346   22.7625   73.5906 O   0  0  0  0  0  0  0  0  0  0  0  0
  -17.9764   18.4281   74.1062 C   0  0  0  0  0  0  0  0  0  0  0  0
  -15.8684   19.5740   75.5951 O   0  0  0  0  0  0  0  0  0  0  0  0
  -16.6968   20.7862   70.0136 C   0  0  0  0  0  0  0  0  0  0  0  0
  -16.4608   20.9564   67.6456 O   0  0  0  0  0  0  0  0  0  0  0  0
  -17.2745   21.3744   75.0337 O   0  0  0  0  0  0  0  0  0  0  0  0
  -14.7144   22.1446   70.1035 O   0  0  0  0  0  0  0  0  0  0  0  0
  -16.3037   20.4057   74.5486 C   0  0  0  0  0  0  0  0  0  0  0  0
  -18.5435   17.4961   72.9827 C   0  0  0  0  0  0  0  0  0  0  0  0
  -17.7058   20.2896   72.5091 O   0  0  0  0  0  0  0  0  0  0  0  0
  -19.8611   20.5593   67.7729 C   0  0  0  0  0  0  0  0  0  0  0  0
  -17.0708   19.5007   73.4728 C   0  0  0  0  0  0  0  0  0  0  0  0
  -15.1738   21.6665   72.3736 O   0  0  0  0  0  0  0  0  0  0  0  0
  -15.1401   21.4642   67.7661 C   0  0  0  0  0  0  0  0  0  0  0  0
  -19.2851   16.4899   73.7059 O   0  0  0  0  0  0  0  0  0  0  0  0
  -15.0759   22.6513   68.7472 C   0  0  0  0  0  0  0  0  0  0  0  0
  -17.3673   21.1020   68.6947 C   0  0  0  0  0  0  0  0  0  0  0  0
  -20.2008   22.9983   68.3020 C   0  0  0  0  0  0  0  0  0  0  0  0
  -19.4976   21.3285   70.0624 C   0  0  0  0  0  0  0  0  0  0  0  0
  -13.4269   22.8573   66.9614 C   0  0  0  0  0  0  0  0  0  0  0  0
  -17.4678   17.5459   75.0567 O   0  0  0  0  0  0  0  0  0  0  0  0
  -15.6471   21.4984   70.9816 C   0  0  0  0  0  0  0  0  0  0  0  0
  -13.8662   21.3547   67.1865 O   0  0  0  0  0  0  0  0  0  0  0  0
  -13.9375   23.5510   68.2387 C   0  0  0  0  0  0  0  0  0  0  0  0
  -20.3586   21.9191   67.2138 C   0  0  0  0  0  0  0  0  0  0  0  0
  -18.8014   20.8438   68.7480 C   0  0  0  0  0  0  0  0  0  0  0  0
  -13.8677   22.3749   72.2632 C   0  0  0  0  0  0  0  0  0  0  0  0
  -14.0422   23.1346   70.9684 C   0  0  0  0  0  0  0  0  0  0  0  0
  -15.1616   21.0778   73.7774 C   0  0  0  0  0  0  0  0  0  0  0  0
  -20.5657   22.3650   69.6829 C   0  0  0  0  0  0  0  0  0  0  0  0
  1 27  1  0
  2  9  1  0
  2 12  1  0
  2 21  1  0
  3  8  1  0
  4 17  1  0
  4 22  1  0
  5 14  1  0
  5 17  1  0
  6  8  1  0
  7 22  1  0
  7 28  1  0
  8 12  1  0
  8 29  1  0
  9 15  1  0
 10 12  1  0
 11 25  1  0
 11 26  1  0
 13 22  1  0
 13 29  1  0
 14 16  1  0
 14 23  1  0
 16 24  1  0
 17 26  1  0
 18 25  1  0
 18 30  1  0
 19 26  1  0
 19 30  1  0
 20 23  1  0
 20 24  1  0
 27 28  1  0
M  END
>  <ID>  (1) 
conformer_0

$$$$
