
     RDKit          3D

 12 12  0  0  0  0  0  0  0  0999 V2000
   -7.3974    2.2493  -31.8141 P   0  0  0  0  0  4  0  0  0  0  0  0
   -5.9974    2.3493  -32.1141 O   0  0  0  0  0  1  0  0  0  0  0  0
   -8.3974    1.2493  -32.1141 O   0  0  0  0  0  0  0  0  0  0  0  0
   -8.0974    3.5493  -32.0141 O   0  0  0  0  0  0  0  0  0  0  0  0
   -8.0974    4.6493  -31.0141 C   0  0  0  0  0  0  0  0  0  0  0  0
   -7.9974    3.9493  -29.7141 C   0  0  0  0  0  0  0  0  0  0  0  0
   -8.6974    4.3493  -28.5141 C   0  0  0  0  0  0  0  0  0  0  0  0
   -9.3974    5.5493  -28.9141 C   0  0  0  0  0  0  0  0  0  0  0  0
   -7.1974    2.7493  -30.1141 O   0  0  0  0  0  0  0  0  0  0  0  0
   -8.6974    6.4493  -29.6141 O   0  0  0  0  0  0  0  0  0  0  0  0
   -9.0974    3.6493  -27.4141 O   0  0  0  0  0  0  0  0  0  0  0  0
  -10.7974    5.0493  -28.9141 O   0  0  0  0  0  0  0  0  0  0  0  0
  2  1  2  0
  3  1  1  0
  4  1  1  0
  5  4  1  0
  6  5  1  0
  7  6  1  0
  8  7  1  0
  9  1  1  0
  9  6  1  0
 10  8  2  0
 11  7  1  0
 12  8  1  0
M  END
>  <ID>  (1) 
conformer_0

$$$$
