
     RDKit          3D

 13 12  0  0  0  0  0  0  0  0999 V2000
   -7.7312    2.5974  -31.8926 P   0  0  0  0  0  4  0  0  0  0  0  0
   -8.4312    1.2974  -32.0926 O   0  0  0  0  0  1  0  0  0  0  0  0
   -7.4312    3.3974  -33.0926 O   0  0  0  0  0  0  0  0  0  0  0  0
   -8.4312    3.0974  -30.6926 O   0  0  0  0  0  0  0  0  0  0  0  0
   -7.7312    3.7974  -29.5926 C   0  0  0  0  0  0  0  0  0  0  0  0
   -8.5312    4.3974  -28.4926 C   0  0  0  0  0  0  0  0  0  0  0  0
   -6.3312    2.0974  -31.7926 O   0  0  0  0  0  0  0  0  0  0  0  0
   -8.6312    5.7974  -28.2926 C   0  0  0  0  0  0  0  0  0  0  0  0
   -9.9312    3.8974  -28.6926 C   0  0  0  0  0  0  0  0  0  0  0  0
  -10.8312    4.7974  -28.0926 O   0  0  0  0  0  0  0  0  0  0  0  0
   -7.9312    6.6974  -27.5926 C   0  0  0  0  0  0  0  0  0  0  0  0
   -9.1312    6.2974  -29.5926 O   0  0  0  0  0  0  0  0  0  0  0  0
  -10.7312    2.9974  -29.4926 C   0  0  0  0  0  0  0  0  0  0  0  0
  2  1  2  0
  3  1  1  0
  4  1  1  0
  5  4  1  0
  6  5  1  0
  7  1  1  0
  8  6  1  0
  9  6  1  0
 10  9  1  0
 11  8  2  0
 12  8  1  0
 13  9  1  0
M  END
>  <ID>  (1) 
conformer_0

$$$$
