
     RDKit          3D

 15 15  0  0  0  0  0  0  0  0999 V2000
   -7.7312    2.5974  -31.8926 P   0  0  0  0  0  4  0  0  0  0  0  0
   -8.4312    1.2974  -32.0926 O   0  0  0  0  0  1  0  0  0  0  0  0
   -7.4312    3.3974  -33.0926 O   0  0  0  0  0  0  0  0  0  0  0  0
   -8.4312    3.0974  -30.6926 O   0  0  0  0  0  0  0  0  0  0  0  0
   -7.7312    3.7974  -29.5926 C   0  0  0  0  0  0  0  0  0  0  0  0
   -8.5312    4.3974  -28.4926 C   0  0  0  0  0  0  0  0  0  0  0  0
   -6.3312    2.0974  -31.7926 O   0  0  0  0  0  0  0  0  0  0  0  0
   -8.6312    5.7974  -28.2926 C   0  0  0  0  0  0  0  0  0  0  0  0
   -9.7312    3.6974  -28.2926 C   0  0  0  0  0  0  0  0  0  0  0  0
   -8.0312    6.7974  -27.5926 C   0  0  0  0  0  0  0  0  0  0  0  0
   -8.6312    7.5974  -26.5926 N   0  0  0  0  0  0  0  0  0  0  0  0
  -10.4312    4.4974  -27.2926 C   0  0  0  0  0  0  0  0  0  0  0  0
  -10.9312    4.6974  -28.4926 N   0  0  0  0  0  0  0  0  0  0  0  0
   -9.2312    6.1974  -29.5926 O   0  0  0  0  0  0  0  0  0  0  0  0
   -8.1312    7.9974  -27.7926 O   0  0  0  0  0  0  0  0  0  0  0  0
  2  1  2  0
  3  1  1  0
  4  1  1  0
  5  4  1  0
  6  5  1  0
  7  1  1  0
  8  6  1  0
  9  6  1  0
 10  8  1  0
 11 10  1  0
 12  9  1  0
 13  9  1  0
 13 12  1  0
 14  8  1  0
 15 10  1  0
M  END
>  <ID>  (1) 
conformer_0

$$$$
