
     RDKit          3D

 11 10  0  0  0  0  0  0  0  0999 V2000
   -7.2640    2.3506  -32.0187 P   0  0  0  0  0  4  0  0  0  0  0  0
   -5.8640    2.4506  -32.1187 O   0  0  0  0  0  1  0  0  0  0  0  0
   -8.0640    1.1506  -31.9187 O   0  0  0  0  0  0  0  0  0  0  0  0
   -7.9640    3.1506  -33.0187 O   0  0  0  0  0  0  0  0  0  0  0  0
   -7.5640    3.1506  -30.8187 O   0  0  0  0  0  0  0  0  0  0  0  0
   -7.9640    4.5506  -30.7187 C   0  0  0  0  0  0  0  0  0  0  0  0
   -8.1640    4.9506  -29.3187 C   0  0  0  0  0  0  0  0  0  0  0  0
   -8.6640    4.1506  -28.3187 C   0  0  0  0  0  0  0  0  0  0  0  0
   -8.4640    6.3506  -29.3187 O   0  0  0  0  0  0  0  0  0  0  0  0
   -9.9640    3.8506  -28.0187 C   0  0  0  0  0  0  0  0  0  0  0  0
  -10.9640    4.9506  -28.2187 O   0  0  0  0  0  0  0  0  0  0  0  0
  2  1  2  0
  3  1  1  0
  4  1  1  0
  5  1  1  0
  6  5  1  0
  7  6  1  0
  8  7  1  0
  9  7  1  0
 10  8  1  0
 11 10  1  0
M  END
>  <ID>  (1) 
conformer_0

$$$$
