
     RDKit          3D

 10  9  0  0  0  0  0  0  0  0999 V2000
   -7.3336    2.5871  -31.7937 P   0  0  0  0  0  4  0  0  0  0  0  0
   -5.9336    2.3871  -32.1937 O   0  0  0  0  0  1  0  0  0  0  0  0
   -8.2336    1.4871  -32.0937 O   0  0  0  0  0  0  0  0  0  0  0  0
   -7.7336    3.7871  -32.5937 O   0  0  0  0  0  0  0  0  0  0  0  0
   -7.3336    2.9871  -30.3937 O   0  0  0  0  0  0  0  0  0  0  0  0
   -7.6336    4.1871  -29.6937 C   0  0  0  0  0  0  0  0  0  0  0  0
   -8.3336    4.0871  -28.3937 C   0  0  0  0  0  0  0  0  0  0  0  0
   -9.7336    4.5871  -28.2937 C   0  0  0  0  0  0  0  0  0  0  0  0
  -10.5336    3.4871  -28.1937 O   0  0  0  0  0  0  0  0  0  0  0  0
  -10.0336    5.3871  -27.0937 C   0  0  0  0  0  0  0  0  0  0  0  0
  2  1  2  0
  3  1  1  0
  4  1  1  0
  5  1  1  0
  6  5  1  0
  7  6  1  0
  8  7  1  0
  9  8  1  0
 10  8  1  0
M  END
>  <ID>  (1) 
conformer_0

$$$$
