
     RDKit          3D

 14 14  0  0  0  0  0  0  0  0999 V2000
   -5.9993    2.5690  -31.9386 O   0  0  0  0  0  1  0  0  0  0  0  0
   -7.3993    2.4690  -31.5386 P   0  0  0  0  0  4  0  0  0  0  0  0
   -8.0993    1.2690  -31.9386 O   0  0  0  0  0  0  0  0  0  0  0  0
   -7.9993    3.0690  -30.3386 O   0  0  0  0  0  0  0  0  0  0  0  0
   -7.6993    4.1690  -29.5386 C   0  0  0  0  0  0  0  0  0  0  0  0
   -8.4993    4.4690  -28.3386 C   0  0  0  0  0  0  0  0  0  0  0  0
   -8.5993    5.8690  -28.0386 C   0  0  0  0  0  0  0  0  0  0  0  0
   -9.7993    3.7690  -28.4386 C   0  0  0  0  0  0  0  0  0  0  0  0
   -7.9993    6.9690  -27.5386 C   0  0  0  0  0  0  0  0  0  0  0  0
   -7.9993    3.5690  -32.3386 O   0  0  0  0  0  0  0  0  0  0  0  0
  -10.7993    4.6690  -27.9386 O   0  0  0  0  0  0  0  0  0  0  0  0
   -9.3993    6.5690  -27.3386 O   0  0  0  0  0  0  0  0  0  0  0  0
  -10.2993    3.2690  -29.7386 C   0  0  0  0  0  0  0  0  0  0  0  0
  -11.4993    2.6690  -29.8386 O   0  0  0  0  0  0  0  0  0  0  0  0
  2  1  2  0
  3  2  1  0
  4  2  1  0
  5  4  1  0
  6  5  1  0
  7  6  1  0
  8  6  1  0
  9  7  1  0
 10  2  1  0
 11  8  1  0
 12  7  1  0
 12  9  1  0
 13  8  1  0
 14 13  1  0
M  END
>  <ID>  (1) 
conformer_0

$$$$
