
     RDKit          3D

 11 11  0  0  0  0  0  0  0  0999 V2000
   -7.3974    2.2493  -31.8141 P   0  0  0  0  0  4  0  0  0  0  0  0
   -5.9974    2.3493  -32.1141 O   0  0  0  0  0  1  0  0  0  0  0  0
   -8.3974    1.2493  -32.1141 O   0  0  0  0  0  0  0  0  0  0  0  0
   -8.0974    3.5493  -32.0141 O   0  0  0  0  0  0  0  0  0  0  0  0
   -8.0974    4.6493  -31.0141 C   0  0  0  0  0  0  0  0  0  0  0  0
   -7.7974    3.8493  -29.8141 C   0  0  0  0  0  0  0  0  0  0  0  0
   -8.8974    3.9493  -28.8141 C   0  0  0  0  0  0  0  0  0  0  0  0
   -7.4974    2.4493  -30.1141 O   0  0  0  0  0  0  0  0  0  0  0  0
   -9.2974    5.3493  -28.9141 C   0  0  0  0  0  0  0  0  0  0  0  0
   -8.4974    6.3493  -28.2141 C   0  0  0  0  0  0  0  0  0  0  0  0
   -9.9974    5.7493  -30.0141 O   0  0  0  0  0  0  0  0  0  0  0  0
  2  1  2  0
  3  1  1  0
  4  1  1  0
  5  4  1  0
  6  5  1  0
  7  6  1  0
  8  1  1  0
  8  6  1  0
  9  7  1  0
 10  9  1  0
 11  9  1  0
M  END
>  <ID>  (1) 
conformer_0

$$$$
