
     RDKit          3D

 13 13  0  0  0  0  0  0  0  0999 V2000
   -7.3994    2.5608  -31.9055 P   0  0  0  0  0  4  0  0  0  0  0  0
   -5.9994    2.2608  -32.0055 O   0  0  0  0  0  1  0  0  0  0  0  0
   -8.3994    1.4608  -32.1055 O   0  0  0  0  0  0  0  0  0  0  0  0
   -7.5994    3.2608  -33.2055 O   0  0  0  0  0  0  0  0  0  0  0  0
   -7.9994    3.3608  -30.8055 O   0  0  0  0  0  0  0  0  0  0  0  0
   -7.4994    4.1608  -29.7055 C   0  0  0  0  0  0  0  0  0  0  0  0
   -8.5994    4.5608  -28.9055 C   0  0  0  0  0  0  0  0  0  0  0  0
   -9.8994    4.3608  -29.5055 C   0  0  0  0  0  0  0  0  0  0  0  0
   -8.6994    5.8608  -28.2055 C   0  0  0  0  0  0  0  0  0  0  0  0
   -9.2994    3.4608  -28.5055 O   0  0  0  0  0  0  0  0  0  0  0  0
  -10.9994    4.8608  -29.1055 O   0  0  0  0  0  0  0  0  0  0  0  0
   -9.6994    6.2608  -27.2055 O   0  0  0  0  0  0  0  0  0  0  0  0
   -7.5994    6.6608  -27.8055 C   0  0  0  0  0  0  0  0  0  0  0  0
  2  1  2  0
  3  1  1  0
  4  1  1  0
  5  1  1  0
  6  5  1  0
  7  6  1  0
  8  7  1  0
  9  7  1  0
 10  7  1  0
 10  8  1  0
 11  8  1  0
 12  9  1  0
 13  9  1  0
M  END
>  <ID>  (1) 
conformer_0

$$$$
