
     RDKit          3D

 15 16  0  0  0  0  0  0  0  0999 V2000
   -5.7601    2.1589  -31.8676 O   0  0  0  0  0  1  0  0  0  0  0  0
   -7.1601    2.5589  -32.0676 P   0  0  0  0  0  4  0  0  0  0  0  0
   -7.4601    3.3589  -33.2676 O   0  0  0  0  0  0  0  0  0  0  0  0
   -7.9601    1.3589  -31.9676 O   0  0  0  0  0  0  0  0  0  0  0  0
   -7.6601    3.2589  -30.8676 O   0  0  0  0  0  0  0  0  0  0  0  0
   -8.0601    4.6589  -30.7676 C   0  0  0  0  0  0  0  0  0  0  0  0
   -8.4601    4.8589  -29.3676 C   0  0  0  0  0  0  0  0  0  0  0  0
   -9.8601    4.3589  -29.1676 C   0  0  0  0  0  0  0  0  0  0  0  0
  -10.2601    4.5589  -27.8676 C   0  0  0  0  0  0  0  0  0  0  0  0
   -8.3601    6.1589  -28.7676 O   0  0  0  0  0  0  0  0  0  0  0  0
   -8.6601    6.4589  -27.4676 C   0  0  0  0  0  0  0  0  0  0  0  0
  -10.7601    5.5589  -27.0676 O   0  0  0  0  0  0  0  0  0  0  0  0
   -9.4601    5.3589  -27.0676 C   0  0  0  0  0  0  0  0  0  0  0  0
  -10.6601    4.9589  -30.2676 O   0  0  0  0  0  0  0  0  0  0  0  0
   -8.4601    7.3589  -26.3676 N   0  0  0  0  0  0  0  0  0  0  0  0
  2  1  2  0
  3  2  1  0
  4  2  1  0
  5  2  1  0
  6  5  1  0
  7  6  1  0
  8  7  1  0
  9  8  1  0
 10  7  1  0
 11 10  1  0
 12  9  1  0
 13  9  1  0
 13 11  1  0
 13 12  1  0
 14  8  1  0
 15 11  1  0
M  END
>  <ID>  (1) 
conformer_0

$$$$
