
     RDKit          3D

 11 11  0  0  0  0  0  0  0  0999 V2000
   -7.5421    2.7964  -32.1054 P   0  0  0  0  0  4  0  0  0  0  0  0
   -7.3421    3.5964  -33.3054 O   0  0  0  0  0  1  0  0  0  0  0  0
   -8.0421    1.3964  -32.0054 O   0  0  0  0  0  0  0  0  0  0  0  0
   -6.1421    2.6964  -31.6054 O   0  0  0  0  0  0  0  0  0  0  0  0
   -8.2421    3.5964  -31.1054 O   0  0  0  0  0  0  0  0  0  0  0  0
   -8.1421    4.8964  -30.6054 C   0  0  0  0  0  0  0  0  0  0  0  0
   -8.5421    5.2964  -29.3054 C   0  0  0  0  0  0  0  0  0  0  0  0
   -9.0421    4.1964  -28.5054 C   0  0  0  0  0  0  0  0  0  0  0  0
   -8.2421    6.4964  -28.6054 O   0  0  0  0  0  0  0  0  0  0  0  0
  -10.4421    3.9964  -28.2054 C   0  0  0  0  0  0  0  0  0  0  0  0
  -10.1421    3.5964  -29.3054 O   0  0  0  0  0  0  0  0  0  0  0  0
  2  1  2  0
  3  1  1  0
  4  1  1  0
  5  1  1  0
  6  5  1  0
  7  6  2  3
  8  7  1  0
  9  7  1  0
 10  8  1  0
 11  8  1  0
 11 10  1  0
M  END
>  <ID>  (1) 
conformer_0

$$$$
