
     RDKit          3D

 12 12  0  0  0  0  0  0  0  0999 V2000
   -7.3336    2.5871  -31.7937 P   0  0  0  0  0  4  0  0  0  0  0  0
   -5.9336    2.2871  -32.0937 O   0  0  0  0  0  1  0  0  0  0  0  0
   -8.0336    1.2871  -31.9937 O   0  0  0  0  0  0  0  0  0  0  0  0
   -7.6336    3.3871  -32.9937 O   0  0  0  0  0  0  0  0  0  0  0  0
   -7.8336    3.0871  -30.4937 O   0  0  0  0  0  0  0  0  0  0  0  0
   -8.2336    4.4871  -30.1937 C   0  0  0  0  0  0  0  0  0  0  0  0
   -8.0336    4.6871  -28.7937 C   0  0  0  0  0  0  0  0  0  0  0  0
   -9.0336    5.3871  -27.9937 C   0  0  0  0  0  0  0  0  0  0  0  0
   -8.6336    6.6871  -27.3937 C   0  0  0  0  0  0  0  0  0  0  0  0
   -7.9336    7.5871  -28.1937 O   0  0  0  0  0  0  0  0  0  0  0  0
  -10.3336    4.8871  -27.4937 O   0  0  0  0  0  0  0  0  0  0  0  0
   -7.6336    5.5871  -29.8937 O   0  0  0  0  0  0  0  0  0  0  0  0
  2  1  2  0
  3  1  1  0
  4  1  1  0
  5  1  1  0
  6  5  1  0
  7  6  1  0
  8  7  1  0
  9  8  1  0
 10  9  1  0
 11  8  1  0
 12  6  1  0
 12  7  1  0
M  END
>  <ID>  (1) 
conformer_0

$$$$
