
     RDKit          3D

 12 11  0  0  0  0  0  0  0  0999 V2000
   -7.3336    2.5871  -31.7937 P   0  0  0  0  0  4  0  0  0  0  0  0
   -5.9336    2.3871  -32.1937 O   0  0  0  0  0  1  0  0  0  0  0  0
   -8.1336    1.3871  -32.1937 O   0  0  0  0  0  0  0  0  0  0  0  0
   -7.9336    3.7871  -32.3937 O   0  0  0  0  0  0  0  0  0  0  0  0
   -7.4336    2.8871  -30.3937 O   0  0  0  0  0  0  0  0  0  0  0  0
   -7.4336    3.8871  -29.4937 C   0  0  0  0  0  0  0  0  0  0  0  0
   -8.4336    4.3871  -28.4937 C   0  0  0  0  0  0  0  0  0  0  0  0
   -8.4336    5.8871  -28.4937 C   0  0  0  0  0  0  0  0  0  0  0  0
   -9.7336    3.7871  -28.2937 C   0  0  0  0  0  0  0  0  0  0  0  0
   -8.0336    6.7871  -27.4937 C   0  0  0  0  0  0  0  0  0  0  0  0
   -8.6336    6.2871  -29.7937 O   0  0  0  0  0  0  0  0  0  0  0  0
  -10.7336    4.6871  -28.7937 O   0  0  0  0  0  0  0  0  0  0  0  0
  2  1  2  0
  3  1  1  0
  4  1  1  0
  5  1  1  0
  6  5  1  0
  7  6  1  0
  8  7  1  0
  9  7  1  0
 10  8  1  0
 11  8  1  0
 12  9  1  0
M  END
>  <ID>  (1) 
conformer_0

$$$$
