
     RDKit          3D

 13 13  0  0  0  0  0  0  0  0999 V2000
   -7.3412    2.5856  -31.8922 P   0  0  0  0  0  4  0  0  0  0  0  0
   -5.9412    2.1855  -32.1922 O   0  0  0  0  0  1  0  0  0  0  0  0
   -8.3412    1.4856  -32.0922 O   0  0  0  0  0  0  0  0  0  0  0  0
   -7.5412    3.6856  -32.8922 O   0  0  0  0  0  0  0  0  0  0  0  0
   -7.5412    2.9856  -30.4922 O   0  0  0  0  0  0  0  0  0  0  0  0
   -7.8412    4.3856  -30.0922 C   0  0  0  0  0  0  0  0  0  0  0  0
   -8.2412    4.4855  -28.6922 C   0  0  0  0  0  0  0  0  0  0  0  0
   -8.7412    5.7856  -28.1922 C   0  0  0  0  0  0  0  0  0  0  0  0
   -7.8412    6.6856  -27.5922 C   0  0  0  0  0  0  0  0  0  0  0  0
   -9.0412    3.4855  -28.2922 O   0  0  0  0  0  0  0  0  0  0  0  0
  -10.3412    3.8856  -27.7922 C   0  0  0  0  0  0  0  0  0  0  0  0
  -10.0412    5.3856  -27.5922 O   0  0  0  0  0  0  0  0  0  0  0  0
   -7.9412    8.0856  -27.9922 O   0  0  0  0  0  0  0  0  0  0  0  0
  2  1  2  0
  3  1  1  0
  4  1  1  0
  5  1  1  0
  6  5  1  0
  7  6  1  0
  8  7  1  0
  9  8  1  0
 10  7  1  0
 11 10  1  0
 12  8  1  0
 12 11  1  0
 13  9  1  0
M  END
>  <ID>  (1) 
conformer_0

$$$$
