
     RDKit          3D

 12 11  0  0  0  0  0  0  0  0999 V2000
   -7.3412    2.5856  -31.8922 P   0  0  0  0  0  4  0  0  0  0  0  0
   -5.9412    2.2856  -31.9922 O   0  0  0  0  0  1  0  0  0  0  0  0
   -8.1412    1.3856  -31.8922 O   0  0  0  0  0  0  0  0  0  0  0  0
   -7.5412    3.5856  -32.9922 O   0  0  0  0  0  0  0  0  0  0  0  0
   -7.6412    3.3856  -30.6922 O   0  0  0  0  0  0  0  0  0  0  0  0
   -8.1412    4.7856  -30.5922 C   0  0  0  0  0  0  0  0  0  0  0  0
   -8.8412    5.1856  -29.4922 C   0  0  0  0  0  0  0  0  0  0  0  0
   -8.7412    4.1856  -28.3922 C   0  0  0  0  0  0  0  0  0  0  0  0
   -8.7412    6.4855  -28.9922 O   0  0  0  0  0  0  0  0  0  0  0  0
  -10.0412    3.8856  -27.7922 C   0  0  0  0  0  0  0  0  0  0  0  0
  -10.9412    4.8856  -28.2922 O   0  0  0  0  0  0  0  0  0  0  0  0
   -7.6412    3.7856  -27.8922 O   0  0  0  0  0  0  0  0  0  0  0  0
  2  1  2  0
  3  1  1  0
  4  1  1  0
  5  1  1  0
  6  5  1  0
  7  6  1  0
  8  7  1  0
  9  7  1  0
 10  8  1  0
 11 10  1  0
 12  8  2  0
M  END
>  <ID>  (1) 
conformer_0

$$$$
