
     RDKit          3D

 15 16  0  0  0  0  0  0  0  0999 V2000
   -7.3412    2.5856  -31.8922 P   0  0  0  0  0  4  0  0  0  0  0  0
   -5.9412    2.1855  -32.1922 O   0  0  0  0  0  1  0  0  0  0  0  0
   -8.3412    1.5856  -32.0922 O   0  0  0  0  0  0  0  0  0  0  0  0
   -7.5412    3.5856  -32.9922 O   0  0  0  0  0  0  0  0  0  0  0  0
   -7.2412    3.0856  -30.4922 O   0  0  0  0  0  0  0  0  0  0  0  0
   -8.1412    3.7856  -29.5922 C   0  0  0  0  0  0  0  0  0  0  0  0
   -8.1412    5.0856  -28.9922 C   0  0  0  0  0  0  0  0  0  0  0  0
   -9.2412    5.2856  -27.9922 C   0  0  0  0  0  0  0  0  0  0  0  0
  -10.1412    4.0856  -27.9922 C   0  0  0  0  0  0  0  0  0  0  0  0
  -10.5412    3.9856  -29.3922 C   0  0  0  0  0  0  0  0  0  0  0  0
   -9.5412    3.7856  -30.3922 C   0  0  0  0  0  0  0  0  0  0  0  0
   -9.1412    5.9856  -29.1922 O   0  0  0  0  0  0  0  0  0  0  0  0
   -9.4412    4.5856  -31.5922 O   0  0  0  0  0  0  0  0  0  0  0  0
  -11.5412    4.9856  -29.7922 O   0  0  0  0  0  0  0  0  0  0  0  0
  -10.8412    4.3856  -26.8922 O   0  0  0  0  0  0  0  0  0  0  0  0
  2  1  2  0
  3  1  1  0
  4  1  1  0
  5  1  1  0
  6  5  1  0
  7  6  1  0
  8  7  1  0
  9  8  1  0
 10  9  1  0
 11  6  1  0
 11 10  1  0
 12  7  1  0
 12  8  1  0
 13 11  1  0
 14 10  1  0
 15  9  1  0
M  END
>  <ID>  (1) 
conformer_0

$$$$
