
     RDKit          3D

 14 14  0  0  0  0  0  0  0  0999 V2000
   -5.7561    2.1807  -31.9304 O   0  0  0  0  0  1  0  0  0  0  0  0
   -7.1561    2.5807  -31.7304 P   0  0  0  0  0  4  0  0  0  0  0  0
   -8.1561    1.4807  -31.9304 O   0  0  0  0  0  0  0  0  0  0  0  0
   -7.5561    3.3807  -32.9304 O   0  0  0  0  0  0  0  0  0  0  0  0
   -7.1561    3.0807  -30.3304 O   0  0  0  0  0  0  0  0  0  0  0  0
   -7.9561    4.0807  -29.8304 C   0  0  0  0  0  0  0  0  0  0  0  0
   -8.2561    4.4807  -28.5304 C   0  0  0  0  0  0  0  0  0  0  0  0
   -9.6561    4.8807  -28.3304 C   0  0  0  0  0  0  0  0  0  0  0  0
  -10.3561    4.6807  -29.6304 C   0  0  0  0  0  0  0  0  0  0  0  0
   -9.3561    4.2807  -30.6304 C   0  0  0  0  0  0  0  0  0  0  0  0
   -9.9561    3.3807  -31.5304 O   0  0  0  0  0  0  0  0  0  0  0  0
  -10.4561    4.9807  -27.2304 O   0  0  0  0  0  0  0  0  0  0  0  0
  -11.6561    4.4807  -29.7304 O   0  0  0  0  0  0  0  0  0  0  0  0
   -7.3561    5.2807  -27.7304 O   0  0  0  0  0  0  0  0  0  0  0  0
  2  1  2  0
  3  2  1  0
  4  2  1  0
  5  2  1  0
  6  5  1  0
  7  6  1  0
  8  7  1  0
  9  8  1  0
 10  6  1  0
 10  9  1  0
 11 10  1  0
 12  8  1  0
 13  9  1  0
 14  7  1  0
M  END
>  <ID>  (1) 
conformer_0

$$$$
