
     RDKit          3D

 11 10  0  0  0  0  0  0  0  0999 V2000
   -7.3388    2.4338  -31.8175 P   0  0  0  0  0  4  0  0  0  0  0  0
   -5.9388    2.3338  -32.2175 O   0  0  0  0  0  1  0  0  0  0  0  0
   -8.1388    1.2338  -32.0175 O   0  0  0  0  0  0  0  0  0  0  0  0
   -7.7388    3.6338  -32.6175 O   0  0  0  0  0  0  0  0  0  0  0  0
   -7.4388    2.8338  -30.4175 O   0  0  0  0  0  0  0  0  0  0  0  0
   -7.8388    3.8338  -29.6175 C   0  0  0  0  0  0  0  0  0  0  0  0
   -8.8388    3.9338  -28.6175 C   0  0  0  0  0  0  0  0  0  0  0  0
   -9.3388    5.2338  -28.1175 C   0  0  0  0  0  0  0  0  0  0  0  0
   -8.3388    6.2338  -28.0175 C   0  0  0  0  0  0  0  0  0  0  0  0
  -10.4388    5.2338  -27.3175 O   0  0  0  0  0  0  0  0  0  0  0  0
   -8.3388    7.5338  -28.0175 O   0  0  0  0  0  0  0  0  0  0  0  0
  2  1  2  0
  3  1  1  0
  4  1  1  0
  5  1  1  0
  6  5  1  0
  7  6  2  3
  8  7  1  0
  9  8  1  0
 10  8  1  0
 11  9  1  0
M  END
>  <ID>  (1) 
conformer_0

$$$$
