
     RDKit          3D

 14 13  0  0  0  0  0  0  0  0999 V2000
   -7.3336    2.5871  -31.7937 P   0  0  0  0  0  4  0  0  0  0  0  0
   -5.9336    2.2871  -32.0937 O   0  0  0  0  0  1  0  0  0  0  0  0
   -8.0336    1.2871  -31.9937 O   0  0  0  0  0  0  0  0  0  0  0  0
   -7.6336    3.3871  -32.9937 O   0  0  0  0  0  0  0  0  0  0  0  0
   -7.8336    3.0871  -30.4937 O   0  0  0  0  0  0  0  0  0  0  0  0
   -7.4336    4.0871  -29.5937 C   0  0  0  0  0  0  0  0  0  0  0  0
   -8.4336    4.3871  -28.5937 C   0  0  0  0  0  0  0  0  0  0  0  0
   -8.3336    5.7871  -28.1937 C   0  0  0  0  0  0  0  0  0  0  0  0
   -9.7336    3.9871  -28.9937 C   0  0  0  0  0  0  0  0  0  0  0  0
  -10.6336    4.7871  -28.1937 O   0  0  0  0  0  0  0  0  0  0  0  0
  -10.3336    3.4871  -30.1937 C   0  0  0  0  0  0  0  0  0  0  0  0
  -11.4336    2.5871  -29.9937 O   0  0  0  0  0  0  0  0  0  0  0  0
   -8.1336    6.7871  -27.3937 C   0  0  0  0  0  0  0  0  0  0  0  0
   -8.7336    6.3871  -29.4937 O   0  0  0  0  0  0  0  0  0  0  0  0
  2  1  2  0
  3  1  1  0
  4  1  1  0
  5  1  1  0
  6  5  1  0
  7  6  1  0
  8  7  1  0
  9  7  1  0
 10  9  1  0
 11  9  1  0
 12 11  1  0
 13  8  2  0
 14  8  1  0
M  END
>  <ID>  (1) 
conformer_0

$$$$
