
     RDKit          3D

 13 15  0  0  0  0  0  0  0  0999 V2000
   -7.1972    2.4656  -31.5198 P   0  0  0  0  0  4  0  0  0  0  0  0
   -5.8972    2.2656  -32.1198 O   0  0  0  0  0  1  0  0  0  0  0  0
   -7.6972    1.0656  -31.3198 O   0  0  0  0  0  0  0  0  0  0  0  0
   -7.1972    3.0656  -30.2198 O   0  0  0  0  0  0  0  0  0  0  0  0
   -8.0972    3.8656  -29.4198 C   0  0  0  0  0  0  0  0  0  0  0  0
   -8.0972    5.1656  -28.9198 C   0  0  0  0  0  0  0  0  0  0  0  0
   -8.2972    3.1656  -32.2198 O   0  0  0  0  0  0  0  0  0  0  0  0
   -9.1972    5.3656  -27.9198 C   0  0  0  0  0  0  0  0  0  0  0  0
   -9.9972    4.1656  -27.8198 C   0  0  0  0  0  0  0  0  0  0  0  0
   -9.3972    3.9656  -30.1198 C   0  0  0  0  0  0  0  0  0  0  0  0
  -10.3972    5.0656  -29.9198 O   0  0  0  0  0  0  0  0  0  0  0  0
  -10.4972    3.9656  -29.1198 C   0  0  0  0  0  0  0  0  0  0  0  0
   -8.7972    6.2656  -28.9198 O   0  0  0  0  0  0  0  0  0  0  0  0
  2  1  2  0
  3  1  1  0
  4  1  1  0
  5  4  1  0
  6  5  1  0
  7  1  1  0
  8  6  1  0
  9  8  1  0
 10  5  1  0
 11 10  1  0
 12  9  1  0
 12 10  1  0
 12 11  1  0
 13  6  1  0
 13  8  1  0
M  END
>  <ID>  (1) 
conformer_0

$$$$
