
     RDKit          3D

 12 12  0  0  0  0  0  0  0  0999 V2000
   -7.2600    2.6771  -32.1460 P   0  0  0  0  0  4  0  0  0  0  0  0
   -5.8600    2.1771  -32.1460 O   0  0  0  0  0  1  0  0  0  0  0  0
   -7.6600    3.5771  -33.2460 O   0  0  0  0  0  0  0  0  0  0  0  0
   -7.9600    1.3771  -31.9460 O   0  0  0  0  0  0  0  0  0  0  0  0
   -7.6600    3.4771  -30.9460 O   0  0  0  0  0  0  0  0  0  0  0  0
   -8.3600    4.6771  -30.9460 C   0  0  0  0  0  0  0  0  0  0  0  0
   -8.6600    4.8771  -29.5460 C   0  0  0  0  0  0  0  0  0  0  0  0
   -9.5600    4.1771  -28.6460 C   0  0  0  0  0  0  0  0  0  0  0  0
   -7.9600    6.0771  -29.0460 O   0  0  0  0  0  0  0  0  0  0  0  0
   -8.1600    6.4771  -27.7460 C   0  0  0  0  0  0  0  0  0  0  0  0
  -10.0600    4.8771  -27.4460 C   0  0  0  0  0  0  0  0  0  0  0  0
   -8.8600    4.1771  -27.3460 O   0  0  0  0  0  0  0  0  0  0  0  0
  2  1  2  0
  3  1  1  0
  4  1  1  0
  5  1  1  0
  6  5  1  0
  7  6  1  0
  8  7  1  0
  9  7  1  0
 10  9  1  0
 11  8  1  0
 12  8  1  0
 12 11  1  0
M  END
>  <ID>  (1) 
conformer_0

$$$$
