
     RDKit          3D

 12 11  0  0  0  0  0  0  0  0999 V2000
   -7.3336    2.5871  -31.7937 P   0  0  0  0  0  4  0  0  0  0  0  0
   -5.9336    2.2871  -32.0937 O   0  0  0  0  0  1  0  0  0  0  0  0
   -8.0336    1.2871  -31.9937 O   0  0  0  0  0  0  0  0  0  0  0  0
   -7.6336    3.3871  -32.9937 O   0  0  0  0  0  0  0  0  0  0  0  0
   -7.4336    3.0871  -30.3937 O   0  0  0  0  0  0  0  0  0  0  0  0
   -7.7336    3.8871  -29.3937 C   0  0  0  0  0  0  0  0  0  0  0  0
   -8.9336    4.4871  -28.8937 C   0  0  0  0  0  0  0  0  0  0  0  0
   -8.6336    5.8871  -28.5937 C   0  0  0  0  0  0  0  0  0  0  0  0
   -9.9336    3.7871  -28.2937 O   0  0  0  0  0  0  0  0  0  0  0  0
   -7.9336    6.4871  -27.5937 C   0  0  0  0  0  0  0  0  0  0  0  0
   -8.3336    6.1871  -29.9937 O   0  0  0  0  0  0  0  0  0  0  0  0
  -10.4336    4.5871  -27.1937 C   0  0  0  0  0  0  0  0  0  0  0  0
  2  1  2  0
  3  1  1  0
  4  1  1  0
  5  1  1  0
  6  5  1  0
  7  6  1  0
  8  7  1  0
  9  7  1  0
 10  8  2  0
 11  8  1  0
 12  9  1  0
M  END
>  <ID>  (1) 
conformer_0

$$$$
