
     RDKit          3D

 14 15  0  0  0  0  0  0  0  0999 V2000
   -7.5349    2.1890  -31.9913 P   0  0  0  0  0  4  0  0  0  0  0  0
   -6.0349    2.1890  -31.9913 O   0  0  0  0  0  1  0  0  0  0  0  0
   -8.5349    1.0890  -32.0913 O   0  0  0  0  0  0  0  0  0  0  0  0
   -7.6349    3.1890  -33.0913 O   0  0  0  0  0  0  0  0  0  0  0  0
   -7.9349    2.7890  -30.6913 O   0  0  0  0  0  0  0  0  0  0  0  0
   -9.1349    3.5890  -30.3913 C   0  0  0  0  0  0  0  0  0  0  0  0
   -9.2349    4.3890  -29.1913 C   0  0  0  0  0  0  0  0  0  0  0  0
   -7.9349    4.8890  -28.6913 C   0  0  0  0  0  0  0  0  0  0  0  0
   -8.1349    6.1890  -27.9913 C   0  0  0  0  0  0  0  0  0  0  0  0
  -10.2349    5.1890  -28.8913 O   0  0  0  0  0  0  0  0  0  0  0  0
   -7.8349    7.3890  -28.0913 O   0  0  0  0  0  0  0  0  0  0  0  0
  -10.4349    5.1890  -27.4913 C   0  0  0  0  0  0  0  0  0  0  0  0
   -8.5349    3.7890  -28.1913 O   0  0  0  0  0  0  0  0  0  0  0  0
   -9.2349    5.7890  -26.9913 C   0  0  0  0  0  0  0  0  0  0  0  0
  2  1  2  0
  3  1  1  0
  4  1  1  0
  5  1  1  0
  6  5  1  0
  7  6  1  0
  8  7  1  0
  9  8  1  0
 10  7  1  0
 11  9  2  0
 12 10  1  0
 13  7  1  0
 13  8  1  0
 14  9  1  0
 14 12  1  0
M  END
>  <ID>  (1) 
conformer_0

$$$$
