
     RDKit          3D

 12 11  0  0  0  0  0  0  0  0999 V2000
   -7.3412    2.5856  -31.8922 P   0  0  0  0  0  4  0  0  0  0  0  0
   -5.9412    2.2856  -31.9922 O   0  0  0  0  0  1  0  0  0  0  0  0
   -8.1412    1.3856  -31.8922 O   0  0  0  0  0  0  0  0  0  0  0  0
   -7.5412    3.5856  -32.9922 O   0  0  0  0  0  0  0  0  0  0  0  0
   -7.6412    3.3856  -30.6922 O   0  0  0  0  0  0  0  0  0  0  0  0
   -8.2412    4.6855  -30.5922 C   0  0  0  0  0  0  0  0  0  0  0  0
   -8.9412    4.7855  -29.2922 C   0  0  0  0  0  0  0  0  0  0  0  0
   -8.6412    5.9855  -28.4922 C   0  0  0  0  0  0  0  0  0  0  0  0
   -9.5412    3.6855  -28.8922 O   0  0  0  0  0  0  0  0  0  0  0  0
  -10.1412    4.0855  -27.6922 C   0  0  0  0  0  0  0  0  0  0  0  0
   -9.4412    6.3856  -27.3922 O   0  0  0  0  0  0  0  0  0  0  0  0
  -10.9412    4.7855  -27.0922 O   0  0  0  0  0  0  0  0  0  0  0  0
  2  1  2  0
  3  1  1  0
  4  1  1  0
  5  1  1  0
  6  5  1  0
  7  6  1  0
  8  7  1  0
  9  7  1  0
 10  9  1  0
 11  8  1  0
 12 10  2  0
M  END
>  <ID>  (1) 
conformer_0

$$$$
