
     RDKit          3D

 13 12  0  0  0  0  0  0  0  0999 V2000
   -6.0948    2.3593  -32.0585 O   0  0  0  0  0  1  0  0  0  0  0  0
   -7.3948    2.4593  -31.7585 P   0  0  0  0  0  4  0  0  0  0  0  0
   -8.2948    1.3593  -32.1585 O   0  0  0  0  0  0  0  0  0  0  0  0
   -8.0948    3.1593  -30.6585 O   0  0  0  0  0  0  0  0  0  0  0  0
   -7.7948    3.7593  -29.4585 C   0  0  0  0  0  0  0  0  0  0  0  0
   -8.6948    4.3593  -28.4585 C   0  0  0  0  0  0  0  0  0  0  0  0
   -8.7948    5.7593  -28.4585 C   0  0  0  0  0  0  0  0  0  0  0  0
   -8.1948    6.7593  -27.6585 C   0  0  0  0  0  0  0  0  0  0  0  0
   -9.9948    3.6593  -28.2585 C   0  0  0  0  0  0  0  0  0  0  0  0
   -8.0948    7.9593  -27.8585 O   0  0  0  0  0  0  0  0  0  0  0  0
   -8.9948    6.1593  -29.8585 O   0  0  0  0  0  0  0  0  0  0  0  0
   -7.7948    3.2593  -32.9585 O   0  0  0  0  0  0  0  0  0  0  0  0
  -10.9948    4.5593  -28.5585 O   0  0  0  0  0  0  0  0  0  0  0  0
  2  1  2  0
  3  2  1  0
  4  2  1  0
  5  4  1  0
  6  5  1  0
  7  6  1  0
  8  7  1  0
  9  6  1  0
 10  8  2  0
 11  7  1  0
 12  2  1  0
 13  9  1  0
M  END
>  <ID>  (1) 
conformer_0

$$$$
