
     RDKit          3D

 13 14  0  0  0  0  0  0  0  0999 V2000
   -5.7561    2.1807  -31.9304 O   0  0  0  0  0  1  0  0  0  0  0  0
   -7.1561    2.5807  -31.7304 P   0  0  0  0  0  4  0  0  0  0  0  0
   -8.1561    1.4807  -31.9304 O   0  0  0  0  0  0  0  0  0  0  0  0
   -7.5561    3.3807  -32.9304 O   0  0  0  0  0  0  0  0  0  0  0  0
   -7.1561    3.0807  -30.3304 O   0  0  0  0  0  0  0  0  0  0  0  0
   -8.1561    3.8807  -29.6304 C   0  0  0  0  0  0  0  0  0  0  0  0
   -7.9561    4.7807  -28.5304 C   0  0  0  0  0  0  0  0  0  0  0  0
   -8.8561    5.7807  -28.1304 C   0  0  0  0  0  0  0  0  0  0  0  0
   -8.1561    6.8807  -27.4304 C   0  0  0  0  0  0  0  0  0  0  0  0
  -10.0561    5.2807  -27.4304 O   0  0  0  0  0  0  0  0  0  0  0  0
  -10.3561    4.0807  -28.2304 C   0  0  0  0  0  0  0  0  0  0  0  0
   -9.6561    3.8807  -29.4304 C   0  0  0  0  0  0  0  0  0  0  0  0
  -10.5561    4.8807  -29.5304 O   0  0  0  0  0  0  0  0  0  0  0  0
  2  1  2  0
  3  2  1  0
  4  2  1  0
  5  2  1  0
  6  5  1  0
  7  6  1  0
  8  7  1  0
  9  8  1  0
 10  8  1  0
 11 10  1  0
 12  6  1  0
 12 11  1  0
 13 11  1  0
 13 12  1  0
M  END
>  <ID>  (1) 
conformer_0

$$$$
