
     RDKit          3D

 14 15  0  0  0  0  0  0  0  0999 V2000
   -7.3412    2.5856  -31.8922 P   0  0  0  0  0  4  0  0  0  0  0  0
   -5.9412    2.1855  -32.1922 O   0  0  0  0  0  1  0  0  0  0  0  0
   -8.3412    1.5856  -32.0922 O   0  0  0  0  0  0  0  0  0  0  0  0
   -7.5412    3.5856  -32.9922 O   0  0  0  0  0  0  0  0  0  0  0  0
   -7.2412    3.0856  -30.4922 O   0  0  0  0  0  0  0  0  0  0  0  0
   -8.1412    3.7856  -29.5922 C   0  0  0  0  0  0  0  0  0  0  0  0
   -8.1412    5.0856  -28.9922 C   0  0  0  0  0  0  0  0  0  0  0  0
   -9.4412    5.2856  -28.2922 C   0  0  0  0  0  0  0  0  0  0  0  0
   -9.8412    3.9856  -27.7922 C   0  0  0  0  0  0  0  0  0  0  0  0
   -9.4412    3.5856  -30.1922 C   0  0  0  0  0  0  0  0  0  0  0  0
   -9.6412    4.2856  -31.3922 O   0  0  0  0  0  0  0  0  0  0  0  0
   -9.3412    5.8856  -29.3922 O   0  0  0  0  0  0  0  0  0  0  0  0
  -10.9412    3.3856  -28.2922 O   0  0  0  0  0  0  0  0  0  0  0  0
  -10.5412    3.7856  -29.1922 C   0  0  0  0  0  0  0  0  0  0  0  0
  2  1  2  0
  3  1  1  0
  4  1  1  0
  5  1  1  0
  6  5  1  0
  7  6  1  0
  8  7  1  0
  9  8  1  0
 10  6  1  0
 11 10  1  0
 12  7  1  0
 12  8  1  0
 13  9  1  0
 14 10  1  0
 14 13  1  0
M  END
>  <ID>  (1) 
conformer_0

$$$$
