
     RDKit          3D

 13 13  0  0  0  0  0  0  0  0999 V2000
   -7.5349    2.1890  -31.9913 P   0  0  0  0  0  4  0  0  0  0  0  0
   -6.0349    2.1890  -31.9913 O   0  0  0  0  0  1  0  0  0  0  0  0
   -8.5349    1.0890  -32.0913 O   0  0  0  0  0  0  0  0  0  0  0  0
   -7.6349    3.1890  -33.0913 O   0  0  0  0  0  0  0  0  0  0  0  0
   -7.9349    2.8890  -30.7913 O   0  0  0  0  0  0  0  0  0  0  0  0
   -7.6349    4.2890  -30.5913 C   0  0  0  0  0  0  0  0  0  0  0  0
   -8.2349    4.9890  -29.4913 C   0  0  0  0  0  0  0  0  0  0  0  0
   -9.3349    4.3890  -28.6913 C   0  0  0  0  0  0  0  0  0  0  0  0
   -8.7349    6.2890  -29.9913 O   0  0  0  0  0  0  0  0  0  0  0  0
   -9.8349    5.1890  -27.5913 C   0  0  0  0  0  0  0  0  0  0  0  0
  -10.4349    3.8890  -29.4913 O   0  0  0  0  0  0  0  0  0  0  0  0
  -10.8349    4.4890  -26.7913 O   0  0  0  0  0  0  0  0  0  0  0  0
   -9.7349    3.0890  -28.5913 C   0  0  0  0  0  0  0  0  0  0  0  0
  2  1  2  0
  3  1  1  0
  4  1  1  0
  5  1  1  0
  6  5  1  0
  7  6  1  0
  8  7  1  0
  9  7  1  0
 10  8  1  0
 11  8  1  0
 12 10  1  0
 13  8  1  0
 13 11  1  0
M  END
>  <ID>  (1) 
conformer_0

$$$$
