
     RDKit          3D

 11 11  0  0  0  0  0  0  0  0999 V2000
   -7.2600    2.6771  -32.1460 P   0  0  0  0  0  4  0  0  0  0  0  0
   -5.8600    2.1771  -32.1460 O   0  0  0  0  0  1  0  0  0  0  0  0
   -7.6600    3.4771  -33.3460 O   0  0  0  0  0  0  0  0  0  0  0  0
   -7.9600    1.3771  -32.0460 O   0  0  0  0  0  0  0  0  0  0  0  0
   -7.4600    3.7771  -31.1460 O   0  0  0  0  0  0  0  0  0  0  0  0
   -8.1600    4.9771  -30.9460 C   0  0  0  0  0  0  0  0  0  0  0  0
   -8.7600    5.3771  -29.6460 C   0  0  0  0  0  0  0  0  0  0  0  0
   -8.4600    4.3771  -28.6460 C   0  0  0  0  0  0  0  0  0  0  0  0
   -9.6600    3.8771  -27.9460 C   0  0  0  0  0  0  0  0  0  0  0  0
  -10.7600    4.7771  -28.0460 O   0  0  0  0  0  0  0  0  0  0  0  0
   -8.3600    5.7771  -28.4460 O   0  0  0  0  0  0  0  0  0  0  0  0
  2  1  2  0
  3  1  1  0
  4  1  1  0
  5  1  1  0
  6  5  1  0
  7  6  1  0
  8  7  1  0
  9  8  1  0
 10  9  1  0
 11  7  1  0
 11  8  1  0
M  END
>  <ID>  (1) 
conformer_0

$$$$
