
     RDKit          3D

 11 10  0  0  0  0  0  0  0  0999 V2000
   -7.3994    2.5608  -31.9055 P   0  0  0  0  0  4  0  0  0  0  0  0
   -5.9994    2.2608  -32.1055 O   0  0  0  0  0  1  0  0  0  0  0  0
   -8.1994    1.3608  -32.0055 O   0  0  0  0  0  0  0  0  0  0  0  0
   -7.5994    3.6608  -32.9055 O   0  0  0  0  0  0  0  0  0  0  0  0
   -7.4994    3.0608  -30.5055 O   0  0  0  0  0  0  0  0  0  0  0  0
   -7.7994    4.4608  -30.2055 C   0  0  0  0  0  0  0  0  0  0  0  0
   -8.7994    4.9608  -29.2055 C   0  0  0  0  0  0  0  0  0  0  0  0
   -8.7994    3.9608  -28.1055 C   0  0  0  0  0  0  0  0  0  0  0  0
   -8.4994    6.3608  -28.8055 O   0  0  0  0  0  0  0  0  0  0  0  0
   -9.9994    4.2608  -27.3055 O   0  0  0  0  0  0  0  0  0  0  0  0
  -10.4994    5.1608  -26.6055 C   0  0  0  0  0  0  0  0  0  0  0  0
  2  1  2  0
  3  1  1  0
  4  1  1  0
  5  1  1  0
  6  5  1  0
  7  6  1  0
  8  7  1  0
  9  7  1  0
 10  8  1  0
 11 10  1  0
M  END
>  <ID>  (1) 
conformer_0

$$$$
