
     RDKit          3D

 11 10  0  0  0  0  0  0  0  0999 V2000
   -7.3994    2.5608  -31.9055 P   0  0  0  0  0  4  0  0  0  0  0  0
   -5.9994    2.2608  -32.0055 O   0  0  0  0  0  1  0  0  0  0  0  0
   -8.3994    1.4608  -32.1055 O   0  0  0  0  0  0  0  0  0  0  0  0
   -7.5994    3.2608  -33.2055 O   0  0  0  0  0  0  0  0  0  0  0  0
   -7.9994    3.3608  -30.8055 O   0  0  0  0  0  0  0  0  0  0  0  0
   -7.5994    3.9608  -29.6055 C   0  0  0  0  0  0  0  0  0  0  0  0
   -8.6994    4.0608  -28.6055 C   0  0  0  0  0  0  0  0  0  0  0  0
   -9.0994    5.4608  -28.4055 C   0  0  0  0  0  0  0  0  0  0  0  0
   -8.0994    6.4608  -27.9055 C   0  0  0  0  0  0  0  0  0  0  0  0
   -9.4994    5.7608  -29.8055 O   0  0  0  0  0  0  0  0  0  0  0  0
  -10.1994    5.6608  -27.4055 C   0  0  0  0  0  0  0  0  0  0  0  0
  2  1  2  0
  3  1  1  0
  4  1  1  0
  5  1  1  0
  6  5  1  0
  7  6  1  0
  8  7  1  0
  9  8  1  0
 10  8  1  0
 11  8  1  0
M  END
>  <ID>  (1) 
conformer_0

$$$$
