
     RDKit          3D

 15 16  0  0  0  0  0  0  0  0999 V2000
   -7.4318    2.6984  -31.9091 P   0  0  0  0  0  4  0  0  0  0  0  0
   -6.0318    2.3984  -32.0091 O   0  0  0  0  0  1  0  0  0  0  0  0
   -8.1318    1.3984  -31.9091 O   0  0  0  0  0  0  0  0  0  0  0  0
   -7.7318    3.4984  -33.1091 O   0  0  0  0  0  0  0  0  0  0  0  0
   -7.9318    3.1984  -30.6091 O   0  0  0  0  0  0  0  0  0  0  0  0
   -9.1318    3.7984  -30.1091 C   0  0  0  0  0  0  0  0  0  0  0  0
   -9.1318    4.2984  -28.8091 C   0  0  0  0  0  0  0  0  0  0  0  0
   -8.4318    5.5984  -28.6091 C   0  0  0  0  0  0  0  0  0  0  0  0
   -8.5318    6.5984  -27.7091 C   0  0  0  0  0  0  0  0  0  0  0  0
  -10.2318    4.1984  -27.8091 C   0  0  0  0  0  0  0  0  0  0  0  0
   -7.9318    7.7984  -27.9091 O   0  0  0  0  0  0  0  0  0  0  0  0
  -10.3318    5.1984  -26.8091 C   0  0  0  0  0  0  0  0  0  0  0  0
   -9.4318    6.3984  -26.6091 C   0  0  0  0  0  0  0  0  0  0  0  0
   -7.8318    4.2984  -28.2091 C   0  0  0  0  0  0  0  0  0  0  0  0
  -11.3318    5.0984  -25.9091 O   0  0  0  0  0  0  0  0  0  0  0  0
  2  1  2  0
  3  1  1  0
  4  1  1  0
  5  1  1  0
  6  5  1  0
  7  6  1  0
  8  7  1  0
  9  8  1  0
 10  7  1  0
 11  9  1  0
 12 10  2  0
 13  9  2  0
 13 12  1  0
 14  7  1  0
 14  8  1  0
 15 12  1  0
M  END
>  <ID>  (1) 
conformer_0

$$$$
