
     RDKit          3D

 12 11  0  0  0  0  0  0  0  0999 V2000
   -7.3994    2.5608  -31.9055 P   0  0  0  0  0  4  0  0  0  0  0  0
   -5.9994    2.3608  -32.1055 O   0  0  0  0  0  1  0  0  0  0  0  0
   -8.1994    1.3608  -32.0055 O   0  0  0  0  0  0  0  0  0  0  0  0
   -7.5994    3.2608  -33.2055 O   0  0  0  0  0  0  0  0  0  0  0  0
   -7.8994    3.2608  -30.7055 O   0  0  0  0  0  0  0  0  0  0  0  0
   -9.2994    3.4608  -30.4055 C   0  0  0  0  0  0  0  0  0  0  0  0
   -9.5994    4.5608  -29.5055 C   0  0  0  0  0  0  0  0  0  0  0  0
   -8.4994    5.2608  -28.9055 C   0  0  0  0  0  0  0  0  0  0  0  0
  -10.8994    4.7608  -29.1055 O   0  0  0  0  0  0  0  0  0  0  0  0
   -8.5994    6.3608  -27.9055 C   0  0  0  0  0  0  0  0  0  0  0  0
   -7.9994    7.4608  -28.0055 O   0  0  0  0  0  0  0  0  0  0  0  0
   -7.3994    5.5608  -29.8055 O   0  0  0  0  0  0  0  0  0  0  0  0
  2  1  2  0
  3  1  1  0
  4  1  1  0
  5  1  1  0
  6  5  1  0
  7  6  2  3
  8  7  1  0
  9  7  1  0
 10  8  1  0
 11 10  2  0
 12  8  1  0
M  END
>  <ID>  (1) 
conformer_0

$$$$
