
     RDKit          3D

 14 16  0  0  0  0  0  0  0  0999 V2000
   -7.3336    2.5871  -31.7937 P   0  0  0  0  0  4  0  0  0  0  0  0
   -5.9336    2.2871  -32.0937 O   0  0  0  0  0  1  0  0  0  0  0  0
   -8.0336    1.2871  -31.9937 O   0  0  0  0  0  0  0  0  0  0  0  0
   -7.6336    3.3871  -32.9937 O   0  0  0  0  0  0  0  0  0  0  0  0
   -7.4336    3.0871  -30.3937 O   0  0  0  0  0  0  0  0  0  0  0  0
   -7.8336    4.4871  -30.0937 C   0  0  0  0  0  0  0  0  0  0  0  0
   -8.1336    4.8871  -28.7937 C   0  0  0  0  0  0  0  0  0  0  0  0
   -9.5336    5.1871  -28.3937 C   0  0  0  0  0  0  0  0  0  0  0  0
  -10.3336    4.5871  -29.3937 C   0  0  0  0  0  0  0  0  0  0  0  0
   -8.6336    4.9871  -31.1937 C   0  0  0  0  0  0  0  0  0  0  0  0
  -10.0336    5.0871  -30.7937 C   0  0  0  0  0  0  0  0  0  0  0  0
  -10.8336    3.2871  -29.2937 O   0  0  0  0  0  0  0  0  0  0  0  0
   -8.8336    6.2871  -29.0937 O   0  0  0  0  0  0  0  0  0  0  0  0
   -9.5336    3.8871  -31.4937 O   0  0  0  0  0  0  0  0  0  0  0  0
  2  1  2  0
  3  1  1  0
  4  1  1  0
  5  1  1  0
  6  5  1  0
  7  6  1  0
  8  7  1  0
  9  8  1  0
 10  6  1  0
 11  9  1  0
 11 10  1  0
 12  9  1  0
 13  7  1  0
 13  8  1  0
 14 10  1  0
 14 11  1  0
M  END
>  <ID>  (1) 
conformer_0

$$$$
