
     RDKit          3D

 11 10  0  0  0  0  0  0  0  0999 V2000
   -7.5421    2.7964  -32.1054 P   0  0  0  0  0  4  0  0  0  0  0  0
   -7.3421    3.5964  -33.3054 O   0  0  0  0  0  1  0  0  0  0  0  0
   -8.0421    1.3964  -32.0054 O   0  0  0  0  0  0  0  0  0  0  0  0
   -6.1421    2.6964  -31.6054 O   0  0  0  0  0  0  0  0  0  0  0  0
   -8.2421    3.5964  -31.1054 O   0  0  0  0  0  0  0  0  0  0  0  0
   -8.1421    4.8964  -30.6054 C   0  0  0  0  0  0  0  0  0  0  0  0
   -8.7421    5.3964  -29.4054 C   0  0  0  0  0  0  0  0  0  0  0  0
   -9.8421    4.5964  -28.9054 C   0  0  0  0  0  0  0  0  0  0  0  0
   -9.5421    3.8964  -27.7054 C   0  0  0  0  0  0  0  0  0  0  0  0
  -11.2421    4.7964  -29.2054 O   0  0  0  0  0  0  0  0  0  0  0  0
   -8.2421    6.3964  -28.7054 O   0  0  0  0  0  0  0  0  0  0  0  0
  2  1  2  0
  3  1  1  0
  4  1  1  0
  5  1  1  0
  6  5  1  0
  7  6  1  0
  8  7  1  0
  9  8  1  0
 10  8  1  0
 11  7  1  0
M  END
>  <ID>  (1) 
conformer_0

$$$$
