
     RDKit          3D

 15 16  0  0  0  0  0  0  0  0999 V2000
   -7.4285    2.5155  -31.6076 P   0  0  0  0  0  4  0  0  0  0  0  0
   -6.0285    2.4155  -32.1076 O   0  0  0  0  0  1  0  0  0  0  0  0
   -8.2285    1.3155  -31.9076 O   0  0  0  0  0  0  0  0  0  0  0  0
   -7.5285    2.9155  -30.2076 O   0  0  0  0  0  0  0  0  0  0  0  0
   -7.8285    4.1155  -29.5076 C   0  0  0  0  0  0  0  0  0  0  0  0
   -8.4285    4.4155  -28.2076 C   0  0  0  0  0  0  0  0  0  0  0  0
   -8.2285    5.0155  -30.6076 C   0  0  0  0  0  0  0  0  0  0  0  0
   -8.8285    5.8155  -28.2076 C   0  0  0  0  0  0  0  0  0  0  0  0
   -8.0285    6.8155  -27.7076 C   0  0  0  0  0  0  0  0  0  0  0  0
   -9.6285    5.5155  -30.6076 C   0  0  0  0  0  0  0  0  0  0  0  0
  -10.3285    4.6155  -29.7076 C   0  0  0  0  0  0  0  0  0  0  0  0
  -11.0285    4.9155  -28.7076 O   0  0  0  0  0  0  0  0  0  0  0  0
   -8.4285    6.7155  -29.0076 O   0  0  0  0  0  0  0  0  0  0  0  0
   -7.9285    4.3155  -31.8076 O   0  0  0  0  0  0  0  0  0  0  0  0
  -10.5285    3.3155  -30.4076 C   0  0  0  0  0  0  0  0  0  0  0  0
  2  1  2  0
  3  1  1  0
  4  1  1  0
  5  4  1  0
  6  5  1  0
  7  5  1  0
  8  6  1  0
  9  8  1  0
 10  7  1  0
 11 10  1  0
 12 11  2  0
 13  8  1  0
 13  9  1  0
 14  1  1  0
 14  7  1  0
 15 11  1  0
M  END
>  <ID>  (1) 
conformer_0

$$$$
