
     RDKit          3D

 13 14  0  0  0  0  0  0  0  0999 V2000
   -7.3412    2.5856  -31.8922 P   0  0  0  0  0  4  0  0  0  0  0  0
   -5.9412    2.1855  -32.0922 O   0  0  0  0  0  1  0  0  0  0  0  0
   -8.2412    1.4856  -32.0922 O   0  0  0  0  0  0  0  0  0  0  0  0
   -7.6412    3.3856  -33.0922 O   0  0  0  0  0  0  0  0  0  0  0  0
   -7.5412    3.2856  -30.5922 O   0  0  0  0  0  0  0  0  0  0  0  0
   -8.1412    4.5856  -30.3922 C   0  0  0  0  0  0  0  0  0  0  0  0
   -8.8412    4.8856  -29.1922 C   0  0  0  0  0  0  0  0  0  0  0  0
   -8.5412    5.9856  -28.2922 C   0  0  0  0  0  0  0  0  0  0  0  0
   -9.8412    3.9856  -28.7922 O   0  0  0  0  0  0  0  0  0  0  0  0
  -10.2412    4.2856  -27.3922 C   0  0  0  0  0  0  0  0  0  0  0  0
   -8.2412    7.2856  -28.1922 O   0  0  0  0  0  0  0  0  0  0  0  0
   -9.3412    5.5856  -27.0922 C   0  0  0  0  0  0  0  0  0  0  0  0
  -10.6412    5.4856  -27.4922 O   0  0  0  0  0  0  0  0  0  0  0  0
  2  1  2  0
  3  1  1  0
  4  1  1  0
  5  1  1  0
  6  5  1  0
  7  6  1  0
  8  7  1  0
  9  7  1  0
 10  9  1  0
 11  8  1  0
 12  8  1  0
 12 10  1  0
 13 10  1  0
 13 12  1  0
M  END
>  <ID>  (1) 
conformer_0

$$$$
