
     RDKit          3D

 13 12  0  0  0  0  0  0  0  0999 V2000
   -7.6399    2.5166  -31.9053 P   0  0  0  0  0  4  0  0  0  0  0  0
   -8.4399    1.3166  -32.2053 O   0  0  0  0  0  1  0  0  0  0  0  0
   -6.1399    2.5166  -31.9053 O   0  0  0  0  0  0  0  0  0  0  0  0
   -7.8399    3.5166  -33.0053 O   0  0  0  0  0  0  0  0  0  0  0  0
   -8.0399    3.1166  -30.6053 O   0  0  0  0  0  0  0  0  0  0  0  0
   -7.3399    3.8166  -29.7053 C   0  0  0  0  0  0  0  0  0  0  0  0
   -8.0399    4.8166  -28.9053 C   0  0  0  0  0  0  0  0  0  0  0  0
   -9.3399    5.0166  -29.1053 C   0  0  0  0  0  0  0  0  0  0  0  0
  -10.2399    4.5166  -28.1053 C   0  0  0  0  0  0  0  0  0  0  0  0
   -9.9399    5.6166  -30.3053 O   0  0  0  0  0  0  0  0  0  0  0  0
  -10.9399    5.2166  -27.1053 O   0  0  0  0  0  0  0  0  0  0  0  0
   -7.3399    5.2166  -27.8053 O   0  0  0  0  0  0  0  0  0  0  0  0
   -7.7399    6.6166  -27.5053 C   0  0  0  0  0  0  0  0  0  0  0  0
  2  1  2  0
  3  1  1  0
  4  1  1  0
  5  1  1  0
  6  5  1  0
  7  6  2  3
  8  7  1  0
  9  8  1  0
 10  8  1  0
 11  9  1  0
 12  7  1  0
 13 12  1  0
M  END
>  <ID>  (1) 
conformer_0

$$$$
