
     RDKit          3D

 13 13  0  0  0  0  0  0  0  0999 V2000
   -7.7551    2.4014  -31.8570 P   0  0  0  0  0  4  0  0  0  0  0  0
   -8.5551    1.2014  -32.2570 O   0  0  0  0  0  1  0  0  0  0  0  0
   -7.5551    3.4014  -32.9570 O   0  0  0  0  0  0  0  0  0  0  0  0
   -8.4551    3.2014  -30.8570 O   0  0  0  0  0  0  0  0  0  0  0  0
   -8.2551    4.6014  -30.6570 C   0  0  0  0  0  0  0  0  0  0  0  0
   -6.3551    2.1014  -31.5570 O   0  0  0  0  0  0  0  0  0  0  0  0
   -8.0551    5.2014  -29.3570 C   0  0  0  0  0  0  0  0  0  0  0  0
   -8.7551    4.5014  -28.2570 C   0  0  0  0  0  0  0  0  0  0  0  0
  -10.0551    4.1014  -28.8570 C   0  0  0  0  0  0  0  0  0  0  0  0
  -10.8551    4.8014  -29.7570 O   0  0  0  0  0  0  0  0  0  0  0  0
   -8.4551    6.5014  -29.2570 O   0  0  0  0  0  0  0  0  0  0  0  0
   -9.8551    5.2014  -27.7570 C   0  0  0  0  0  0  0  0  0  0  0  0
  -10.9551    5.1014  -26.9570 O   0  0  0  0  0  0  0  0  0  0  0  0
  2  1  2  0
  3  1  1  0
  4  1  1  0
  5  4  1  0
  6  1  1  0
  7  5  1  0
  8  7  1  0
  9  8  1  0
 10  9  1  0
 11  7  1  0
 12  8  1  0
 12  9  1  0
 13 12  1  0
M  END
>  <ID>  (1) 
conformer_0

$$$$
