
     RDKit          3D

 13 14  0  0  0  0  0  0  0  0999 V2000
   -7.3305    2.8148  -31.8102 P   0  0  0  0  0  4  0  0  0  0  0  0
   -5.9305    2.5148  -32.0102 O   0  0  0  0  0  1  0  0  0  0  0  0
   -8.0305    1.5148  -32.0102 O   0  0  0  0  0  0  0  0  0  0  0  0
   -7.8305    3.8148  -32.8102 O   0  0  0  0  0  0  0  0  0  0  0  0
   -7.5305    3.4148  -30.5102 O   0  0  0  0  0  0  0  0  0  0  0  0
   -7.8305    4.6148  -29.9102 C   0  0  0  0  0  0  0  0  0  0  0  0
   -8.0305    5.1148  -28.6102 C   0  0  0  0  0  0  0  0  0  0  0  0
   -9.3305    5.3148  -28.0102 C   0  0  0  0  0  0  0  0  0  0  0  0
  -10.3305    4.5148  -28.7102 C   0  0  0  0  0  0  0  0  0  0  0  0
  -10.2305    4.7148  -30.1102 C   0  0  0  0  0  0  0  0  0  0  0  0
   -9.0305    5.3148  -30.7102 C   0  0  0  0  0  0  0  0  0  0  0  0
   -8.8305    6.2148  -31.5102 O   0  0  0  0  0  0  0  0  0  0  0  0
   -9.9305    3.4148  -29.6102 O   0  0  0  0  0  0  0  0  0  0  0  0
  2  1  2  0
  3  1  1  0
  4  1  1  0
  5  1  1  0
  6  5  1  0
  7  6  1  0
  8  7  1  0
  9  8  1  0
 10  9  1  0
 11  6  1  0
 11 10  1  0
 12 11  2  0
 13  9  1  0
 13 10  1  0
M  END
>  <ID>  (1) 
conformer_0

$$$$
