
     RDKit          3D

 15 15  0  0  0  0  0  0  0  0999 V2000
   -7.4318    2.6984  -31.9091 P   0  0  0  0  0  4  0  0  0  0  0  0
   -6.0318    2.3984  -32.0091 O   0  0  0  0  0  1  0  0  0  0  0  0
   -8.1318    1.3984  -31.9091 O   0  0  0  0  0  0  0  0  0  0  0  0
   -7.7318    3.4984  -33.1091 O   0  0  0  0  0  0  0  0  0  0  0  0
   -7.7318    3.4984  -30.7091 O   0  0  0  0  0  0  0  0  0  0  0  0
   -8.1318    4.8984  -30.6091 C   0  0  0  0  0  0  0  0  0  0  0  0
   -8.6318    5.3984  -29.3091 C   0  0  0  0  0  0  0  0  0  0  0  0
   -8.7318    4.3984  -28.2091 C   0  0  0  0  0  0  0  0  0  0  0  0
  -10.1318    4.1984  -27.7091 C   0  0  0  0  0  0  0  0  0  0  0  0
  -10.8318    5.1984  -27.2091 O   0  0  0  0  0  0  0  0  0  0  0  0
  -10.0318    5.5984  -29.7091 O   0  0  0  0  0  0  0  0  0  0  0  0
  -10.5318    4.2984  -30.1091 C   0  0  0  0  0  0  0  0  0  0  0  0
  -10.7318    3.4984  -28.9090 C   0  0  0  0  0  0  0  0  0  0  0  0
  -10.1318    3.5984  -31.3091 O   0  0  0  0  0  0  0  0  0  0  0  0
   -8.0318    4.8984  -27.1091 O   0  0  0  0  0  0  0  0  0  0  0  0
  2  1  2  0
  3  1  1  0
  4  1  1  0
  5  1  1  0
  6  5  1  0
  7  6  1  0
  8  7  1  0
  9  8  1  0
 10  9  1  0
 11  7  1  0
 12 11  1  0
 13  9  1  0
 13 12  1  0
 14 12  2  0
 15  8  1  0
M  END
>  <ID>  (1) 
conformer_0

$$$$
