
     RDKit          3D

 15 15  0  0  0  0  0  0  0  0999 V2000
   -7.4307    2.5867  -31.8194 P   0  0  0  0  0  4  0  0  0  0  0  0
   -6.0307    2.1867  -32.1194 O   0  0  0  0  0  1  0  0  0  0  0  0
   -8.3307    1.4867  -32.2194 O   0  0  0  0  0  0  0  0  0  0  0  0
   -7.6307    3.8867  -32.5194 O   0  0  0  0  0  0  0  0  0  0  0  0
   -7.5307    2.8867  -30.4194 O   0  0  0  0  0  0  0  0  0  0  0  0
   -7.5307    4.1867  -29.8194 C   0  0  0  0  0  0  0  0  0  0  0  0
   -8.7307    4.5867  -29.1194 C   0  0  0  0  0  0  0  0  0  0  0  0
   -8.8307    5.5867  -28.1194 C   0  0  0  0  0  0  0  0  0  0  0  0
   -8.1307    6.7867  -27.8194 C   0  0  0  0  0  0  0  0  0  0  0  0
   -8.6307    7.4867  -26.6194 N   0  0  0  0  0  0  0  0  0  0  0  0
  -10.1307    5.5867  -27.4194 O   0  0  0  0  0  0  0  0  0  0  0  0
   -9.8307    3.6867  -29.3194 O   0  0  0  0  0  0  0  0  0  0  0  0
  -10.8307    3.3867  -28.4194 C   0  0  0  0  0  0  0  0  0  0  0  0
  -10.6307    4.3867  -27.3194 C   0  0  0  0  0  0  0  0  0  0  0  0
   -8.2307    7.9867  -27.8194 O   0  0  0  0  0  0  0  0  0  0  0  0
  2  1  2  0
  3  1  1  0
  4  1  1  0
  5  1  1  0
  6  5  1  0
  7  6  1  0
  8  7  1  0
  9  8  1  0
 10  9  1  0
 11  8  1  0
 12  7  1  0
 13 12  1  0
 14 11  1  0
 14 13  1  0
 15  9  1  0
M  END
>  <ID>  (1) 
conformer_0

$$$$
