
     RDKit          3D

 15 17  0  0  0  0  0  0  0  0999 V2000
   -7.5349    2.1890  -31.9913 P   0  0  0  0  0  4  0  0  0  0  0  0
   -6.0349    2.1890  -31.9913 O   0  0  0  0  0  1  0  0  0  0  0  0
   -8.5349    1.0890  -32.0913 O   0  0  0  0  0  0  0  0  0  0  0  0
   -7.6349    3.1890  -33.0913 O   0  0  0  0  0  0  0  0  0  0  0  0
   -7.9349    2.7890  -30.6913 O   0  0  0  0  0  0  0  0  0  0  0  0
   -9.1349    3.5890  -30.3913 C   0  0  0  0  0  0  0  0  0  0  0  0
   -9.2349    4.3890  -29.1913 C   0  0  0  0  0  0  0  0  0  0  0  0
   -7.9349    4.8890  -28.6913 C   0  0  0  0  0  0  0  0  0  0  0  0
   -8.0349    6.1890  -27.9913 C   0  0  0  0  0  0  0  0  0  0  0  0
  -10.5349    4.6890  -28.5913 O   0  0  0  0  0  0  0  0  0  0  0  0
  -10.3349    5.1890  -27.2913 C   0  0  0  0  0  0  0  0  0  0  0  0
   -8.3349    7.3890  -28.0913 O   0  0  0  0  0  0  0  0  0  0  0  0
  -10.5349    6.3890  -26.4913 N   0  0  0  0  0  0  0  0  0  0  0  0
   -9.2349    5.8890  -26.9913 C   0  0  0  0  0  0  0  0  0  0  0  0
   -8.5349    3.7890  -27.9913 O   0  0  0  0  0  0  0  0  0  0  0  0
  2  1  2  0
  3  1  1  0
  4  1  1  0
  5  1  1  0
  6  5  1  0
  7  6  1  0
  8  7  1  0
  9  8  1  0
 10  7  1  0
 11 10  1  0
 12  9  1  0
 13 11  1  0
 14  9  1  0
 14 11  1  0
 14 13  1  0
 15  7  1  0
 15  8  1  0
M  END
>  <ID>  (1) 
conformer_0

$$$$
