
     RDKit          3D

 16 16  0  0  0  0  0  0  0  0999 V2000
   -7.3412    2.5856  -31.8922 P   0  0  0  0  0  4  0  0  0  0  0  0
   -5.9412    2.1855  -32.0922 O   0  0  0  0  0  1  0  0  0  0  0  0
   -8.2412    1.4856  -32.0922 O   0  0  0  0  0  0  0  0  0  0  0  0
   -7.6412    3.3856  -33.0922 O   0  0  0  0  0  0  0  0  0  0  0  0
   -7.6412    3.1856  -30.5922 O   0  0  0  0  0  0  0  0  0  0  0  0
   -8.9412    3.7856  -30.1922 C   0  0  0  0  0  0  0  0  0  0  0  0
   -9.0412    4.2856  -28.7922 C   0  0  0  0  0  0  0  0  0  0  0  0
   -8.5412    5.6856  -28.6922 C   0  0  0  0  0  0  0  0  0  0  0  0
  -10.2412    3.8856  -28.0922 C   0  0  0  0  0  0  0  0  0  0  0  0
   -8.3412    6.5856  -27.6922 C   0  0  0  0  0  0  0  0  0  0  0  0
   -7.7412    5.8856  -29.8922 O   0  0  0  0  0  0  0  0  0  0  0  0
  -10.8412    4.8856  -27.2922 O   0  0  0  0  0  0  0  0  0  0  0  0
   -8.1412    7.8856  -28.0922 O   0  0  0  0  0  0  0  0  0  0  0  0
  -10.3412    3.4856  -30.5922 C   0  0  0  0  0  0  0  0  0  0  0  0
  -11.2412    2.6856  -29.9922 O   0  0  0  0  0  0  0  0  0  0  0  0
   -9.3412    4.1856  -31.3922 C   0  0  0  0  0  0  0  0  0  0  0  0
  2  1  2  0
  3  1  1  0
  4  1  1  0
  5  1  1  0
  6  5  1  0
  7  6  1  0
  8  7  1  0
  9  7  1  0
 10  8  1  0
 11  8  1  0
 12  9  1  0
 13 10  1  0
 14  6  1  0
 15 14  1  0
 16  6  1  0
 16 14  1  0
M  END
>  <ID>  (1) 
conformer_0

$$$$
