
     RDKit          3D

 12 12  0  0  0  0  0  0  0  0999 V2000
   -7.4307    2.5867  -31.8194 P   0  0  0  0  0  4  0  0  0  0  0  0
   -6.0307    2.2867  -32.0194 O   0  0  0  0  0  1  0  0  0  0  0  0
   -8.3307    1.3867  -31.8194 O   0  0  0  0  0  0  0  0  0  0  0  0
   -7.8307    3.3867  -33.0194 O   0  0  0  0  0  0  0  0  0  0  0  0
   -7.5307    3.0867  -30.4194 O   0  0  0  0  0  0  0  0  0  0  0  0
   -7.8307    4.3867  -29.8194 C   0  0  0  0  0  0  0  0  0  0  0  0
   -8.4307    4.3867  -28.6194 C   0  0  0  0  0  0  0  0  0  0  0  0
   -8.7307    5.7867  -28.2194 C   0  0  0  0  0  0  0  0  0  0  0  0
   -9.4307    3.4867  -28.1194 C   0  0  0  0  0  0  0  0  0  0  0  0
   -7.7307    6.6867  -27.6194 C   0  0  0  0  0  0  0  0  0  0  0  0
   -9.9307    5.7867  -27.4194 O   0  0  0  0  0  0  0  0  0  0  0  0
  -10.4307    4.3867  -27.4194 C   0  0  0  0  0  0  0  0  0  0  0  0
  2  1  2  0
  3  1  1  0
  4  1  1  0
  5  1  1  0
  6  5  1  0
  7  6  1  0
  8  7  1  0
  9  7  1  0
 10  8  1  0
 11  8  1  0
 12  9  2  0
 12 11  1  0
M  END
>  <ID>  (1) 
conformer_0

$$$$
