
     RDKit          3D

 15 14  0  0  0  0  0  0  0  0999 V2000
   -7.5349    2.1890  -31.9913 P   0  0  0  0  0  4  0  0  0  0  0  0
   -6.0349    2.1890  -31.9913 O   0  0  0  0  0  1  0  0  0  0  0  0
   -8.5349    1.0890  -32.0913 O   0  0  0  0  0  0  0  0  0  0  0  0
   -7.6349    3.1890  -33.0913 O   0  0  0  0  0  0  0  0  0  0  0  0
   -7.9349    2.7890  -30.6913 O   0  0  0  0  0  0  0  0  0  0  0  0
   -9.1349    3.5890  -30.3913 C   0  0  0  0  0  0  0  0  0  0  0  0
   -9.2349    4.3890  -29.1913 C   0  0  0  0  0  0  0  0  0  0  0  0
   -8.0349    5.0890  -28.7913 C   0  0  0  0  0  0  0  0  0  0  0  0
   -8.2349    6.3890  -28.0913 C   0  0  0  0  0  0  0  0  0  0  0  0
  -10.4349    4.9890  -28.5913 O   0  0  0  0  0  0  0  0  0  0  0  0
  -10.3349    5.2890  -27.1913 C   0  0  0  0  0  0  0  0  0  0  0  0
  -10.8349    6.2890  -26.2913 N   0  0  0  0  0  0  0  0  0  0  0  0
   -7.4349    5.3890  -30.0913 O   0  0  0  0  0  0  0  0  0  0  0  0
   -9.3349    6.9890  -28.6913 O   0  0  0  0  0  0  0  0  0  0  0  0
   -9.2349    4.4890  -26.6913 C   0  0  0  0  0  0  0  0  0  0  0  0
  2  1  2  0
  3  1  1  0
  4  1  1  0
  5  1  1  0
  6  5  1  0
  7  6  1  0
  8  7  1  0
  9  8  1  0
 10  7  1  0
 11 10  1  0
 12 11  1  0
 13  8  1  0
 14  9  1  0
 15 11  1  0
M  END
>  <ID>  (1) 
conformer_0

$$$$
