
     RDKit          3D

 15 16  0  0  0  0  0  0  0  0999 V2000
   -7.5349    2.1890  -31.9913 P   0  0  0  0  0  4  0  0  0  0  0  0
   -6.0349    2.1890  -31.9913 O   0  0  0  0  0  1  0  0  0  0  0  0
   -8.5349    1.0890  -32.0913 O   0  0  0  0  0  0  0  0  0  0  0  0
   -7.6349    3.1890  -33.0913 O   0  0  0  0  0  0  0  0  0  0  0  0
   -7.9349    2.7890  -30.6913 O   0  0  0  0  0  0  0  0  0  0  0  0
   -9.1349    3.3890  -30.3913 C   0  0  0  0  0  0  0  0  0  0  0  0
   -9.2349    4.4890  -29.3913 C   0  0  0  0  0  0  0  0  0  0  0  0
   -8.0349    4.5890  -28.5913 C   0  0  0  0  0  0  0  0  0  0  0  0
  -10.4349    4.6890  -28.6913 O   0  0  0  0  0  0  0  0  0  0  0  0
  -10.4349    4.7890  -27.2913 C   0  0  0  0  0  0  0  0  0  0  0  0
   -8.3349    5.8890  -27.9913 C   0  0  0  0  0  0  0  0  0  0  0  0
   -8.0349    7.1890  -28.0913 O   0  0  0  0  0  0  0  0  0  0  0  0
   -9.3349    5.6890  -26.8913 C   0  0  0  0  0  0  0  0  0  0  0  0
   -9.3349    4.2890  -26.6913 O   0  0  0  0  0  0  0  0  0  0  0  0
   -6.7349    4.5890  -29.2913 O   0  0  0  0  0  0  0  0  0  0  0  0
  2  1  2  0
  3  1  1  0
  4  1  1  0
  5  1  1  0
  6  5  1  0
  7  6  1  0
  8  7  1  0
  9  7  1  0
 10  9  1  0
 11  8  1  0
 12 11  1  0
 13 10  1  0
 13 11  1  0
 14 10  1  0
 14 13  1  0
 15  8  1  0
M  END
>  <ID>  (1) 
conformer_0

$$$$
