
     RDKit          3D

 12 11  0  0  0  0  0  0  0  0999 V2000
   -7.4213    2.5753  -31.8012 P   0  0  0  0  0  4  0  0  0  0  0  0
   -6.0213    2.2753  -32.2012 O   0  0  0  0  0  1  0  0  0  0  0  0
   -8.3213    1.4753  -32.1012 O   0  0  0  0  0  0  0  0  0  0  0  0
   -7.8213    3.8753  -32.3012 O   0  0  0  0  0  0  0  0  0  0  0  0
   -7.4213    2.6753  -30.4012 O   0  0  0  0  0  0  0  0  0  0  0  0
   -7.1213    3.8753  -29.6012 C   0  0  0  0  0  0  0  0  0  0  0  0
   -8.1213    4.3753  -28.6012 C   0  0  0  0  0  0  0  0  0  0  0  0
   -8.4213    5.7753  -28.4012 C   0  0  0  0  0  0  0  0  0  0  0  0
   -8.1213    6.8753  -27.6012 C   0  0  0  0  0  0  0  0  0  0  0  0
   -9.4213    3.6753  -28.8012 C   0  0  0  0  0  0  0  0  0  0  0  0
  -10.6213    4.3753  -28.3012 C   0  0  0  0  0  0  0  0  0  0  0  0
   -9.2213    6.1753  -29.6012 O   0  0  0  0  0  0  0  0  0  0  0  0
  2  1  2  0
  3  1  1  0
  4  1  1  0
  5  1  1  0
  6  5  1  0
  7  6  1  0
  8  7  1  0
  9  8  1  0
 10  7  1  0
 11 10  1  0
 12  8  1  0
M  END
>  <ID>  (1) 
conformer_0

$$$$
