
     RDKit          3D

 13 13  0  0  0  0  0  0  0  0999 V2000
   -7.5349    2.1890  -31.9913 P   0  0  0  0  0  4  0  0  0  0  0  0
   -6.0349    2.1890  -31.9913 O   0  0  0  0  0  1  0  0  0  0  0  0
   -8.5349    1.0890  -32.0913 O   0  0  0  0  0  0  0  0  0  0  0  0
   -7.6349    3.1890  -33.0913 O   0  0  0  0  0  0  0  0  0  0  0  0
   -7.9349    2.9890  -30.7913 O   0  0  0  0  0  0  0  0  0  0  0  0
   -7.1349    3.8890  -30.0913 C   0  0  0  0  0  0  0  0  0  0  0  0
   -7.7349    5.1890  -29.8913 C   0  0  0  0  0  0  0  0  0  0  0  0
   -9.0349    5.0890  -29.1913 C   0  0  0  0  0  0  0  0  0  0  0  0
   -9.0349    3.8890  -28.3913 C   0  0  0  0  0  0  0  0  0  0  0  0
  -10.2349    5.3890  -29.7913 O   0  0  0  0  0  0  0  0  0  0  0  0
   -8.0349    5.6890  -31.1913 O   0  0  0  0  0  0  0  0  0  0  0  0
  -10.3349    3.3890  -27.9913 O   0  0  0  0  0  0  0  0  0  0  0  0
   -8.9349    5.2890  -27.8913 C   0  0  0  0  0  0  0  0  0  0  0  0
  2  1  2  0
  3  1  1  0
  4  1  1  0
  5  1  1  0
  6  5  1  0
  7  6  1  0
  8  7  1  0
  9  8  1  0
 10  8  1  0
 11  7  1  0
 12  9  1  0
 13  8  1  0
 13  9  1  0
M  END
>  <ID>  (1) 
conformer_0

$$$$
