
     RDKit          3D

 15 15  0  0  0  0  0  0  0  0999 V2000
   -7.3388    2.4338  -31.8175 P   0  0  0  0  0  4  0  0  0  0  0  0
   -5.9388    2.2338  -32.0175 O   0  0  0  0  0  1  0  0  0  0  0  0
   -8.2388    1.2338  -31.8175 O   0  0  0  0  0  0  0  0  0  0  0  0
   -7.6388    3.2338  -33.0175 O   0  0  0  0  0  0  0  0  0  0  0  0
   -7.9388    3.2338  -30.7175 O   0  0  0  0  0  0  0  0  0  0  0  0
   -8.0388    4.6338  -30.5175 C   0  0  0  0  0  0  0  0  0  0  0  0
   -8.2388    5.3338  -29.3175 C   0  0  0  0  0  0  0  0  0  0  0  0
   -9.5388    5.1338  -28.6175 C   0  0  0  0  0  0  0  0  0  0  0  0
  -10.1388    3.9338  -29.2175 C   0  0  0  0  0  0  0  0  0  0  0  0
  -10.7388    3.1338  -28.2175 O   0  0  0  0  0  0  0  0  0  0  0  0
  -10.1388    5.4338  -27.3175 O   0  0  0  0  0  0  0  0  0  0  0  0
  -10.6388    3.9338  -30.6175 C   0  0  0  0  0  0  0  0  0  0  0  0
  -10.3388    2.6338  -31.2175 O   0  0  0  0  0  0  0  0  0  0  0  0
   -7.3388    5.0338  -28.2175 O   0  0  0  0  0  0  0  0  0  0  0  0
   -7.8388    6.3338  -27.9175 C   0  0  0  0  0  0  0  0  0  0  0  0
  2  1  2  0
  3  1  1  0
  4  1  1  0
  5  1  1  0
  6  5  1  0
  7  6  1  0
  8  7  1  0
  9  8  1  0
 10  9  1  0
 11  8  1  0
 12  9  1  0
 13 12  1  0
 14  7  1  0
 15  7  1  0
 15 14  1  0
M  END
>  <ID>  (1) 
conformer_0

$$$$
