
     RDKit          3D

 14 14  0  0  0  0  0  0  0  0999 V2000
   -7.5349    2.1890  -31.9913 P   0  0  0  0  0  4  0  0  0  0  0  0
   -6.0349    2.1890  -31.9913 O   0  0  0  0  0  1  0  0  0  0  0  0
   -8.5349    1.0890  -32.0913 O   0  0  0  0  0  0  0  0  0  0  0  0
   -7.6349    3.1890  -33.0913 O   0  0  0  0  0  0  0  0  0  0  0  0
   -7.9349    2.7890  -30.6913 O   0  0  0  0  0  0  0  0  0  0  0  0
   -9.1349    3.5890  -30.3913 C   0  0  0  0  0  0  0  0  0  0  0  0
   -9.2349    4.3890  -29.1913 C   0  0  0  0  0  0  0  0  0  0  0  0
   -8.0349    5.0890  -28.7913 C   0  0  0  0  0  0  0  0  0  0  0  0
   -8.2349    6.3890  -28.0913 C   0  0  0  0  0  0  0  0  0  0  0  0
  -10.5349    4.7890  -28.6913 O   0  0  0  0  0  0  0  0  0  0  0  0
  -10.2349    5.1890  -27.2913 C   0  0  0  0  0  0  0  0  0  0  0  0
   -9.5349    6.3890  -27.3913 O   0  0  0  0  0  0  0  0  0  0  0  0
   -7.3349    5.2890  -30.0913 O   0  0  0  0  0  0  0  0  0  0  0  0
  -11.2349    5.2890  -26.1913 C   0  0  0  0  0  0  0  0  0  0  0  0
  2  1  2  0
  3  1  1  0
  4  1  1  0
  5  1  1  0
  6  5  1  0
  7  6  1  0
  8  7  1  0
  9  8  1  0
 10  7  1  0
 11 10  1  0
 12  9  1  0
 12 11  1  0
 13  8  1  0
 14 11  1  0
M  END
>  <ID>  (1) 
conformer_0

$$$$
