
     RDKit          3D

 12 11  0  0  0  0  0  0  0  0999 V2000
   -7.4321    2.3893  -32.0220 P   0  0  0  0  0  4  0  0  0  0  0  0
   -6.0321    2.2893  -31.8220 O   0  0  0  0  0  1  0  0  0  0  0  0
   -8.4321    1.2893  -32.2220 O   0  0  0  0  0  0  0  0  0  0  0  0
   -7.6321    3.6893  -32.7220 O   0  0  0  0  0  0  0  0  0  0  0  0
   -8.0321    2.6893  -30.7220 O   0  0  0  0  0  0  0  0  0  0  0  0
   -9.2321    3.4893  -30.4220 C   0  0  0  0  0  0  0  0  0  0  0  0
   -9.0321    4.1893  -29.1220 C   0  0  0  0  0  0  0  0  0  0  0  0
   -8.5321    5.5893  -29.0220 C   0  0  0  0  0  0  0  0  0  0  0  0
  -10.1321    3.9893  -28.1220 C   0  0  0  0  0  0  0  0  0  0  0  0
  -10.7321    4.9893  -27.5220 O   0  0  0  0  0  0  0  0  0  0  0  0
   -8.1321    6.2893  -27.9220 C   0  0  0  0  0  0  0  0  0  0  0  0
   -7.7321    5.7893  -30.2220 O   0  0  0  0  0  0  0  0  0  0  0  0
  2  1  2  0
  3  1  1  0
  4  1  1  0
  5  1  1  0
  6  5  1  0
  7  6  1  0
  8  7  1  0
  9  7  1  0
 10  9  1  0
 11  8  2  0
 12  8  1  0
M  END
>  <ID>  (1) 
conformer_0

$$$$
