
     RDKit          3D

 12 11  0  0  0  0  0  0  0  0999 V2000
   -7.3386    2.3214  -32.0088 P   0  0  0  0  0  4  0  0  0  0  0  0
   -5.8386    2.3214  -32.0088 O   0  0  0  0  0  1  0  0  0  0  0  0
   -8.3386    1.2214  -32.0088 O   0  0  0  0  0  0  0  0  0  0  0  0
   -7.6386    3.2214  -33.1088 O   0  0  0  0  0  0  0  0  0  0  0  0
   -7.6386    3.1214  -30.8088 O   0  0  0  0  0  0  0  0  0  0  0  0
   -8.0386    4.5214  -30.7088 C   0  0  0  0  0  0  0  0  0  0  0  0
   -8.4386    4.8214  -29.3088 C   0  0  0  0  0  0  0  0  0  0  0  0
   -9.8386    4.7214  -29.0088 C   0  0  0  0  0  0  0  0  0  0  0  0
  -10.2386    4.5214  -27.6088 C   0  0  0  0  0  0  0  0  0  0  0  0
  -10.6386    5.2214  -30.1088 O   0  0  0  0  0  0  0  0  0  0  0  0
   -7.9386    6.1214  -29.0088 O   0  0  0  0  0  0  0  0  0  0  0  0
   -8.4386    6.4214  -27.7088 C   0  0  0  0  0  0  0  0  0  0  0  0
  2  1  2  0
  3  1  1  0
  4  1  1  0
  5  1  1  0
  6  5  1  0
  7  6  1  0
  8  7  1  0
  9  8  1  0
 10  8  1  0
 11  7  1  0
 12 11  1  0
M  END
>  <ID>  (1) 
conformer_0

$$$$
