
     RDKit          3D

 13 12  0  0  0  0  0  0  0  0999 V2000
   -7.3336    2.5871  -31.7937 P   0  0  0  0  0  4  0  0  0  0  0  0
   -5.9336    2.2871  -32.0937 O   0  0  0  0  0  1  0  0  0  0  0  0
   -8.0336    1.2871  -31.9937 O   0  0  0  0  0  0  0  0  0  0  0  0
   -7.6336    3.3871  -32.9937 O   0  0  0  0  0  0  0  0  0  0  0  0
   -7.8336    3.0871  -30.4937 O   0  0  0  0  0  0  0  0  0  0  0  0
   -7.4336    4.0871  -29.5937 C   0  0  0  0  0  0  0  0  0  0  0  0
   -8.4336    4.3871  -28.5937 C   0  0  0  0  0  0  0  0  0  0  0  0
   -8.8336    5.7871  -28.2937 C   0  0  0  0  0  0  0  0  0  0  0  0
   -8.2336    6.6871  -27.3937 C   0  0  0  0  0  0  0  0  0  0  0  0
   -9.5336    3.5871  -28.3937 C   0  0  0  0  0  0  0  0  0  0  0  0
   -8.9336    6.3871  -29.5937 O   0  0  0  0  0  0  0  0  0  0  0  0
  -10.8336    4.2871  -28.3937 O   0  0  0  0  0  0  0  0  0  0  0  0
   -8.0336    7.8871  -27.5937 F   0  0  0  0  0  0  0  0  0  0  0  0
  2  1  2  0
  3  1  1  0
  4  1  1  0
  5  1  1  0
  6  5  1  0
  7  6  1  0
  8  7  1  0
  9  8  1  0
 10  7  1  0
 11  8  1  0
 12 10  1  0
 13  9  1  0
M  END
>  <ID>  (1) 
conformer_0

$$$$
