
     RDKit          3D

 11 10  0  0  0  0  0  0  0  0999 V2000
   -7.5349    2.1890  -31.9913 P   0  0  0  0  0  4  0  0  0  0  0  0
   -6.0349    2.1890  -31.9913 O   0  0  0  0  0  1  0  0  0  0  0  0
   -8.5349    1.0890  -32.0913 O   0  0  0  0  0  0  0  0  0  0  0  0
   -7.6349    3.1890  -33.0913 O   0  0  0  0  0  0  0  0  0  0  0  0
   -7.9349    2.7890  -30.6913 O   0  0  0  0  0  0  0  0  0  0  0  0
   -8.8349    3.7890  -30.2913 C   0  0  0  0  0  0  0  0  0  0  0  0
   -8.7349    4.4890  -28.9913 C   0  0  0  0  0  0  0  0  0  0  0  0
   -9.7349    4.3890  -27.9913 C   0  0  0  0  0  0  0  0  0  0  0  0
   -8.0349    5.7890  -29.0913 O   0  0  0  0  0  0  0  0  0  0  0  0
   -8.2349    6.4890  -27.7913 C   0  0  0  0  0  0  0  0  0  0  0  0
  -10.5349    5.3890  -27.2913 O   0  0  0  0  0  0  0  0  0  0  0  0
  2  1  2  0
  3  1  1  0
  4  1  1  0
  5  1  1  0
  6  5  1  0
  7  6  1  0
  8  7  1  0
  9  7  1  0
 10  9  1  0
 11  8  1  0
M  END
>  <ID>  (1) 
conformer_0

$$$$
