
     RDKit          3D

 21 22  0  0  0  0  0  0  0  0999 V2000
    4.5520  107.8123   25.5397 C   0  0  0  0  0  0  0  0  0  0  0  0
   -0.9399  107.9613   23.8012 N   0  0  0  0  0  0  0  0  0  0  0  0
    2.9608  107.8589   23.3285 C   0  0  0  0  0  0  0  0  0  0  0  0
   -2.0324  108.3859   23.0901 C   0  0  0  0  0  0  0  0  0  0  0  0
    0.1001  107.5786   22.9650 C   0  0  0  0  0  0  0  0  0  0  0  0
    5.7472  109.8614   24.8082 C   0  0  0  0  0  0  0  0  0  0  0  0
    6.0078  110.7596   23.9326 O   0  0  0  0  0  0  0  0  0  0  0  0
   -1.7328  108.2812   21.7531 C   0  0  0  0  0  0  0  0  0  0  0  0
    1.6065  105.9567   24.1117 C   0  0  0  0  0  0  0  0  0  0  0  0
    6.4642  109.9109   25.9328 N   0  0  0  0  0  0  0  0  0  0  0  0
    2.7134  106.8765   24.2971 C   0  0  0  0  0  0  0  0  0  0  0  0
   -2.7083  108.4454   20.6397 C   0  0  0  0  0  0  0  0  0  0  0  0
    3.9575  108.7655   23.4460 C   0  0  0  0  0  0  0  0  0  0  0  0
    0.7672  106.4030   23.1121 N   0  0  0  0  0  0  0  0  0  0  0  0
   -0.3700  107.8524   21.6467 C   0  0  0  0  0  0  0  0  0  0  0  0
   -0.7819  108.3123   18.8182 C   0  0  0  0  0  0  0  0  0  0  0  0
    3.5392  106.8437   25.4090 C   0  0  0  0  0  0  0  0  0  0  0  0
   -3.0879  108.8712   23.5710 O   0  0  0  0  0  0  0  0  0  0  0  0
    1.4375  104.8103   24.6268 O   0  0  0  0  0  0  0  0  0  0  0  0
   -2.2040  108.8428   19.2719 C   0  0  0  0  0  0  0  0  0  0  0  0
    4.7748  108.8069   24.6105 C   0  0  0  0  0  0  0  0  0  0  0  0
  1 17  2  0
  1 21  1  0
  2  4  1  0
  2  5  1  0
  3 11  2  0
  3 13  1  0
  4  8  1  0
  4 18  2  0
  5 14  1  0
  5 15  1  0
  6  7  2  0
  6 10  1  0
  6 21  1  0
  8 12  1  0
  8 15  1  0
  9 11  1  0
  9 14  1  0
  9 19  2  0
 11 17  1  0
 12 20  1  0
 13 21  2  0
 16 20  1  0
M  END
>  <ID>  (1) 
conformer_0

$$$$
