
     RDKit          3D

 28 31  0  0  0  0  0  0  0  0999 V2000
    2.5583  105.6611   24.5490 C   0  0  0  0  0  0  0  0  0  0  0  0
    2.4071  107.8006   23.5017 N   0  0  0  0  0  0  0  0  0  0  0  0
   -0.3716  108.3125   18.9790 C   0  0  0  0  0  0  0  0  0  0  0  0
    1.6278  107.3490   22.5323 N   0  0  0  0  0  0  0  0  0  0  0  0
   -2.3892  108.2591   20.0544 C   0  0  0  0  0  0  0  0  0  0  0  0
    6.1775  107.8582   25.7047 C   0  0  0  0  0  0  0  0  0  0  0  0
    2.6894  104.5139   22.4454 N   0  0  0  0  0  0  0  0  0  0  0  0
   -3.1896  108.6634   24.0133 C   0  0  0  0  0  0  0  0  0  0  0  0
    3.7910  107.5182   25.5008 C   0  0  0  0  0  0  0  0  0  0  0  0
   -3.0582  107.8509   22.7665 C   0  0  0  0  0  0  0  0  0  0  0  0
    4.9153  109.1614   24.1856 C   0  0  0  0  0  0  0  0  0  0  0  0
    7.3960  108.3265   25.5049 C   0  0  0  0  0  0  0  0  0  0  0  0
    1.8405  105.1973   23.3818 C   0  0  0  0  0  0  0  0  0  0  0  0
   -4.5104  109.3842   25.7377 O   0  0  0  0  0  0  0  0  0  0  0  0
   -1.7128  108.5427   18.8157 C   0  0  0  0  0  0  0  0  0  0  0  0
   -4.4932  109.3120   24.3221 C   0  0  0  0  0  0  0  0  0  0  0  0
    7.8242  109.3373   24.7028 C   0  0  0  0  0  0  0  0  0  0  0  0
   -0.1348  107.8597   20.3052 O   0  0  0  0  0  0  0  0  0  0  0  0
   -1.7138  107.5248   22.2838 C   0  0  0  0  0  0  0  0  0  0  0  0
   -0.6733  106.6363   22.9755 C   0  0  0  0  0  0  0  0  0  0  0  0
   -3.8772  108.1615   26.2268 C   0  0  0  0  0  0  0  0  0  0  0  0
    0.8644  106.1975   22.8856 C   0  0  0  0  0  0  0  0  0  0  0  0
   -2.8496  107.8205   25.2306 C   0  0  0  0  0  0  0  0  0  0  0  0
    4.9925  108.1757   25.1158 C   0  0  0  0  0  0  0  0  0  0  0  0
    7.1418  110.1398   23.8654 N   0  0  0  0  0  0  0  0  0  0  0  0
    2.8982  107.0482   24.5170 C   0  0  0  0  0  0  0  0  0  0  0  0
   -1.4141  107.8380   20.9496 C   0  0  0  0  0  0  0  0  0  0  0  0
    5.8195  109.9601   23.7218 C   0  0  0  0  0  0  0  0  0  0  0  0
  1 13  1  0
  1 26  1  0
  2  4  1  0
  2 26  2  0
  3 15  1  0
  3 18  1  0
  4 22  1  0
  5 15  1  0
  5 27  1  0
  6 12  2  0
  6 24  1  0
  7 13  1  0
  8 10  1  0
  8 16  1  0
  8 23  1  0
  9 24  1  0
  9 26  1  0
 10 19  1  0
 11 24  1  0
 11 28  2  0
 12 17  1  0
 13 22  1  0
 14 16  1  0
 14 21  1  0
 17 25  2  0
 18 27  1  0
 19 20  1  0
 19 27  1  0
 20 22  1  0
 21 23  1  0
 25 28  1  0
M  END
>  <ID>  (1) 
conformer_0

$$$$
