
     RDKit          3D

 26 28  0  0  0  0  0  0  0  0999 V2000
    4.5143  107.9871   24.0793 O   0  0  0  0  0  0  0  0  0  0  0  0
   -3.7093  109.5123   19.8581 C   0  0  0  0  0  0  0  0  0  0  0  0
    4.0208  106.2122   25.4086 N   0  0  0  0  0  0  0  0  0  0  0  0
   -1.6022  108.7558   18.9557 C   0  0  0  0  0  0  0  0  0  0  0  0
    6.3767  110.2773   24.3318 C   0  0  0  0  0  0  0  0  0  0  0  0
   -0.0628  107.6204   20.2380 F   0  0  0  0  0  0  0  0  0  0  0  0
   -2.0685  107.3205   22.3906 C   0  0  0  0  0  0  0  0  0  0  0  0
    4.8651  107.0095   26.0460 C   0  0  0  0  0  0  0  0  0  0  0  0
    1.5350  105.5601   24.4665 C   0  0  0  0  0  0  0  0  0  0  0  0
   -0.8133  107.4320   23.1438 C   0  0  0  0  0  0  0  0  0  0  0  0
    0.1854  105.2953   23.7894 C   0  0  0  0  0  0  0  0  0  0  0  0
   -0.7136  106.4165   24.0804 N   0  0  0  0  0  0  0  0  0  0  0  0
    6.2541  108.8420   26.0180 C   0  0  0  0  0  0  0  0  0  0  0  0
   -2.8184  109.4163   18.8166 C   0  0  0  0  0  0  0  0  0  0  0  0
   -2.2517  108.1033   21.1716 C   0  0  0  0  0  0  0  0  0  0  0  0
    5.4662  107.1370   27.3030 C   0  0  0  0  0  0  0  0  0  0  0  0
    6.3239  108.2557   27.2656 C   0  0  0  0  0  0  0  0  0  0  0  0
    3.6750  106.8777   24.1687 C   0  0  0  0  0  0  0  0  0  0  0  0
   -3.4154  108.8566   21.0411 C   0  0  0  0  0  0  0  0  0  0  0  0
    5.3080  108.0729   25.2608 C   0  0  0  0  0  0  0  0  0  0  0  0
   -3.1783  107.0821   23.1902 O   0  0  0  0  0  0  0  0  0  0  0  0
   -1.3029  108.1284   20.1358 C   0  0  0  0  0  0  0  0  0  0  0  0
    0.0173  108.3585   23.1003 O   0  0  0  0  0  0  0  0  0  0  0  0
    1.3178  106.0274   25.9011 C   0  0  0  0  0  0  0  0  0  0  0  0
    6.8886  109.9289   25.6469 O   0  0  0  0  0  0  0  0  0  0  0  0
    2.3993  106.3818   23.5483 C   0  0  0  0  0  0  0  0  0  0  0  0
  1 18  1  0
  1 20  1  0
  2 14  2  0
  2 19  1  0
  3  8  1  0
  3 18  1  0
  4 14  1  0
  4 22  2  0
  5 25  1  0
  6 22  1  0
  7 10  1  0
  7 15  1  0
  7 21  1  0
  8 16  1  0
  8 20  1  0
  9 11  1  0
  9 24  1  0
  9 26  1  0
 10 12  1  0
 10 23  2  0
 11 12  1  0
 13 17  1  0
 13 20  2  0
 13 25  1  0
 15 19  2  0
 15 22  1  0
 16 17  1  0
 18 26  1  0
M  END
>  <ID>  (1) 
conformer_0

$$$$
