
     RDKit          3D

 31 33  0  0  0  0  0  0  0  0999 V2000
    2.8400  106.4839   25.1710 C   0  0  0  0  0  0  0  0  0  0  0  0
   -0.2261  107.7670   23.8573 N   0  0  0  0  0  0  0  0  0  0  0  0
    1.0862  105.4332   26.2825 C   0  0  0  0  0  0  0  0  0  0  0  0
    2.0023  106.8639   24.1344 C   0  0  0  0  0  0  0  0  0  0  0  0
    8.2645  109.2602   24.6025 C   0  0  0  0  0  0  0  0  0  0  0  0
    4.1263  107.0650   25.2140 C   0  0  0  0  0  0  0  0  0  0  0  0
   -2.4625  107.2524   22.8428 C   0  0  0  0  0  0  0  0  0  0  0  0
    5.0658  106.6942   26.2014 C   0  0  0  0  0  0  0  0  0  0  0  0
   -3.4188  109.1756   19.7821 C   0  0  0  0  0  0  0  0  0  0  0  0
   -2.9680  105.6007   22.4087 Cl  0  0  0  0  0  0  0  0  0  0  0  0
   -2.1213  107.9209   21.5640 C   0  0  0  0  0  0  0  0  0  0  0  0
    5.8587  111.0493   23.2958 C   0  0  0  0  0  0  0  0  0  0  0  0
    6.1866  107.5380   26.1284 C   0  0  0  0  0  0  0  0  0  0  0  0
    5.9637  108.4670   25.0913 C   0  0  0  0  0  0  0  0  0  0  0  0
   -0.8337  107.7236   20.9945 C   0  0  0  0  0  0  0  0  0  0  0  0
   -1.5687  107.4537   23.9770 C   0  0  0  0  0  0  0  0  0  0  0  0
   -0.4780  108.0363   19.7375 C   0  0  0  0  0  0  0  0  0  0  0  0
    6.8516  109.5542   24.8945 C   0  0  0  0  0  0  0  0  0  0  0  0
   -2.2454  107.3587   25.1399 O   0  0  0  0  0  0  0  0  0  0  0  0
    2.3841  105.6708   26.1412 C   0  0  0  0  0  0  0  0  0  0  0  0
   -1.2467  108.5918   18.7789 C   0  0  0  0  0  0  0  0  0  0  0  0
   -2.4863  109.1061   18.7074 C   0  0  0  0  0  0  0  0  0  0  0  0
    4.9988  105.7501   27.1055 O   0  0  0  0  0  0  0  0  0  0  0  0
    6.3389  110.7400   24.5321 O   0  0  0  0  0  0  0  0  0  0  0  0
    8.5405  108.8959   23.2069 O   0  0  0  0  0  0  0  0  0  0  0  0
   -3.1655  108.6647   21.0138 C   0  0  0  0  0  0  0  0  0  0  0  0
    0.6516  106.9011   24.4886 C   0  0  0  0  0  0  0  0  0  0  0  0
    4.7137  108.1472   24.5535 C   0  0  0  0  0  0  0  0  0  0  0  0
    0.2425  106.0643   25.4102 N   0  0  0  0  0  0  0  0  0  0  0  0
    2.3999  107.1537   22.8836 O   0  0  0  0  0  0  0  0  0  0  0  0
    6.3989  112.0918   22.5905 N   0  0  0  0  0  0  0  0  0  0  0  0
  1  4  1  0
  1  6  1  0
  1 20  1  0
  2 16  1  0
  2 27  2  3
  3 20  2  0
  3 29  1  0
  4 27  1  0
  4 30  1  0
  5 18  1  0
  5 25  1  0
  6  8  2  0
  6 28  1  0
  7 10  1  0
  7 11  1  0
  7 16  1  0
  8 13  1  0
  8 23  1  0
  9 22  2  0
  9 26  1  0
 11 15  2  0
 11 26  1  0
 12 24  1  0
 12 31  1  0
 13 14  1  0
 14 18  1  0
 14 28  1  0
 15 17  1  0
 16 19  2  0
 17 21  2  0
 18 24  1  0
 21 22  1  0
 27 29  1  0
M  END
>  <ID>  (1) 
conformer_0

$$$$
