
     RDKit          3D

 27 29  0  0  0  0  0  0  0  0999 V2000
    8.1169  109.3743   24.0857 O   0  0  0  0  0  0  0  0  0  0  0  0
    0.9072  108.3542   23.0915 O   0  0  0  0  0  0  0  0  0  0  0  0
    1.7286  106.2149   23.2880 C   0  0  0  0  0  0  0  0  0  0  0  0
   -2.1969  109.2009   19.2560 C   0  0  0  0  0  0  0  0  0  0  0  0
    3.5949  106.8644   25.6352 C   0  0  0  0  0  0  0  0  0  0  0  0
    4.7292  108.3298   24.0497 C   0  0  0  0  0  0  0  0  0  0  0  0
   -1.0820  108.5980   18.8274 C   0  0  0  0  0  0  0  0  0  0  0  0
    3.0238  106.8099   23.3646 N   0  0  0  0  0  0  0  0  0  0  0  0
   -2.6373  109.0318   20.5373 C   0  0  0  0  0  0  0  0  0  0  0  0
    3.8418  107.3847   24.3753 C   0  0  0  0  0  0  0  0  0  0  0  0
   -2.9162  107.3799   24.8244 C   0  0  0  0  0  0  0  0  0  0  0  0
    5.4061  107.7348   26.9734 C   0  0  0  0  0  0  0  0  0  0  0  0
   -0.2845  107.8304   19.6289 C   0  0  0  0  0  0  0  0  0  0  0  0
    4.2785  107.0557   26.7222 C   0  0  0  0  0  0  0  0  0  0  0  0
    6.8420  109.6446   24.0820 C   0  0  0  0  0  0  0  0  0  0  0  0
    5.8602  108.8018   24.7949 C   0  0  0  0  0  0  0  0  0  0  0  0
   -2.3563  108.0089   22.6903 C   0  0  0  0  0  0  0  0  0  0  0  0
    0.7810  107.2406   22.7843 C   0  0  0  0  0  0  0  0  0  0  0  0
   -4.0174  108.0344   24.2678 C   0  0  0  0  0  0  0  0  0  0  0  0
   -3.6825  108.4302   22.9947 C   0  0  0  0  0  0  0  0  0  0  0  0
    2.4918  106.0782   25.7852 F   0  0  0  0  0  0  0  0  0  0  0  0
   -1.8649  108.2321   21.3782 C   0  0  0  0  0  0  0  0  0  0  0  0
   -0.6967  107.6321   20.9058 C   0  0  0  0  0  0  0  0  0  0  0  0
    6.0502  108.5210   26.0974 C   0  0  0  0  0  0  0  0  0  0  0  0
   -1.8705  107.3844   23.8235 C   0  0  0  0  0  0  0  0  0  0  0  0
   -0.0042  106.7690   21.7480 N   0  0  0  0  0  0  0  0  0  0  0  0
    6.4906  110.7028   23.4329 O   0  0  0  0  0  0  0  0  0  0  0  0
  1 15  2  0
  2 18  2  0
  3  8  1  0
  3 18  1  0
  4  7  2  0
  4  9  1  0
  5 10  1  0
  5 14  2  0
  5 21  1  0
  6 10  1  0
  6 16  2  0
  7 13  1  0
  8 10  1  0
  9 22  2  0
 11 19  1  0
 11 25  1  0
 12 14  1  0
 12 24  2  0
 13 23  2  0
 15 16  1  0
 15 27  1  0
 16 24  1  0
 17 20  1  0
 17 22  1  0
 17 25  1  0
 18 26  1  0
 19 20  1  0
 22 23  1  0
 23 26  1  0
M  END
>  <ID>  (1) 
conformer_0

$$$$
