
     RDKit          3D

 33 36  0  0  0  0  0  0  0  0999 V2000
    4.7699  108.1934   24.2362 C   0  0  0  0  0  0  0  0  0  0  0  0
    8.4769  109.1425   23.4559 O   0  0  0  0  0  0  0  0  0  0  0  0
    1.3427  105.3793   25.2919 C   0  0  0  0  0  0  0  0  0  0  0  0
   -2.6387  109.4613   19.9886 C   0  0  0  0  0  0  0  0  0  0  0  0
    2.2728  103.5364   27.7273 C   0  0  0  0  0  0  0  0  0  0  0  0
    6.5280  108.2409   26.0141 C   0  0  0  0  0  0  0  0  0  0  0  0
    8.3908  109.2434   24.7133 C   0  0  0  0  0  0  0  0  0  0  0  0
    0.2199  103.7553   28.9960 C   0  0  0  0  0  0  0  0  0  0  0  0
   -1.8159  108.8736   18.8371 C   0  0  0  0  0  0  0  0  0  0  0  0
    2.0171  102.2613   29.7336 N   0  0  0  0  0  0  0  0  0  0  0  0
    2.5470  105.3160   26.1269 C   0  0  0  0  0  0  0  0  0  0  0  0
    3.4376  106.2878   25.6632 C   0  0  0  0  0  0  0  0  0  0  0  0
    5.2959  107.7406   25.4644 C   0  0  0  0  0  0  0  0  0  0  0  0
    0.9385  106.9511   23.2373 C   0  0  0  0  0  0  0  0  0  0  0  0
   -2.2906  108.7132   21.3320 C   0  0  0  0  0  0  0  0  0  0  0  0
   -0.3071  107.1572   23.7289 N   0  0  0  0  0  0  0  0  0  0  0  0
    0.7255  102.8254   30.1120 C   0  0  0  0  0  0  0  0  0  0  0  0
    0.8816  103.2601   27.7638 O   0  0  0  0  0  0  0  0  0  0  0  0
   -4.1228  109.3915   19.7062 C   0  0  0  0  0  0  0  0  0  0  0  0
    2.4816  104.9644   27.4732 C   0  0  0  0  0  0  0  0  0  0  0  0
   -3.1200  108.6316   22.3417 N   0  0  0  0  0  0  0  0  0  0  0  0
    9.3502  109.2300   25.4683 O   0  0  0  0  0  0  0  0  0  0  0  0
    3.5920  107.7365   23.7665 C   0  0  0  0  0  0  0  0  0  0  0  0
    2.9036  103.1487   29.0480 C   0  0  0  0  0  0  0  0  0  0  0  0
    0.3305  104.7183   25.3486 O   0  0  0  0  0  0  0  0  0  0  0  0
    4.6194  106.7849   26.1844 C   0  0  0  0  0  0  0  0  0  0  0  0
   -1.2666  107.7043   22.9714 C   0  0  0  0  0  0  0  0  0  0  0  0
   -1.1479  108.1099   21.6944 N   0  0  0  0  0  0  0  0  0  0  0  0
    2.9170  106.8287   24.4990 C   0  0  0  0  0  0  0  0  0  0  0  0
    1.3792  107.1542   22.1055 O   0  0  0  0  0  0  0  0  0  0  0  0
   -2.4689  107.9788   23.3935 N   0  0  0  0  0  0  0  0  0  0  0  0
    6.9730  109.4825   25.3055 C   0  0  0  0  0  0  0  0  0  0  0  0
    1.6319  106.3026   24.2580 C   0  0  0  0  0  0  0  0  0  0  0  0
  1 13  2  0
  1 23  1  0
  2  7  2  0
  3 11  1  0
  3 25  2  0
  3 33  1  0
  4  9  1  0
  4 15  1  0
  4 19  1  0
  5 18  1  0
  5 20  1  0
  5 24  1  0
  6 13  1  0
  6 32  1  0
  7 22  1  0
  7 32  1  0
  8 17  1  0
  8 18  1  0
 10 17  1  0
 10 24  1  0
 11 12  1  0
 11 20  1  0
 12 26  2  0
 12 29  1  0
 13 26  1  0
 14 16  1  0
 14 30  2  0
 14 33  1  0
 15 21  2  0
 15 28  1  0
 16 27  2  3
 21 31  1  0
 23 29  2  0
 27 28  1  0
 27 31  1  0
 29 33  1  0
M  END
>  <ID>  (1) 
conformer_0

$$$$
