
     RDKit          3D

 30 33  0  0  0  0  0  0  0  0999 V2000
    2.9480  106.4236   25.1305 C   0  0  0  0  0  0  0  0  0  0  0  0
    1.7641  105.7070   25.4979 C   0  0  0  0  0  0  0  0  0  0  0  0
   -0.4318  105.0032   25.0916 C   0  0  0  0  0  0  0  0  0  0  0  0
    5.6433  107.4939   27.4799 C   0  0  0  0  0  0  0  0  0  0  0  0
   -1.4023  105.2416   22.1976 O   0  0  0  0  0  0  0  0  0  0  0  0
    6.4444  110.2877   23.5680 C   0  0  0  0  0  0  0  0  0  0  0  0
   -2.8318  108.8348   21.0152 C   0  0  0  0  0  0  0  0  0  0  0  0
    1.7620  105.0411   26.6945 C   0  0  0  0  0  0  0  0  0  0  0  0
   -0.4498  104.3567   26.2909 C   0  0  0  0  0  0  0  0  0  0  0  0
    6.7739  108.3953   25.7494 C   0  0  0  0  0  0  0  0  0  0  0  0
    4.8622  107.3081   26.2901 C   0  0  0  0  0  0  0  0  0  0  0  0
    2.7638  107.0970   22.8173 N   0  0  0  0  0  0  0  0  0  0  0  0
    6.8077  108.1866   27.1033 C   0  0  0  0  0  0  0  0  0  0  0  0
    3.7286  106.6648   26.2702 O   0  0  0  0  0  0  0  0  0  0  0  0
   -0.8237  107.8214   20.1369 C   0  0  0  0  0  0  0  0  0  0  0  0
   -2.3608  108.9708   18.7071 C   0  0  0  0  0  0  0  0  0  0  0  0
   -1.1707  108.2928   18.9011 C   0  0  0  0  0  0  0  0  0  0  0  0
   -0.6832  106.3539   22.6553 C   0  0  0  0  0  0  0  0  0  0  0  0
    0.6510  105.6887   24.6524 C   0  0  0  0  0  0  0  0  0  0  0  0
   -3.2174  109.2540   19.7500 C   0  0  0  0  0  0  0  0  0  0  0  0
   -1.6675  108.0965   21.2233 C   0  0  0  0  0  0  0  0  0  0  0  0
    0.6610  104.3638   27.1162 C   0  0  0  0  0  0  0  0  0  0  0  0
   -1.3283  107.6382   22.5358 C   0  0  0  0  0  0  0  0  0  0  0  0
    1.4803  107.4041   23.0498 C   0  0  0  0  0  0  0  0  0  0  0  0
    7.8448  109.4671   23.7739 C   0  0  0  0  0  0  0  0  0  0  0  0
    3.4793  106.7276   23.8871 N   0  0  0  0  0  0  0  0  0  0  0  0
    5.5362  107.9178   25.2743 C   0  0  0  0  0  0  0  0  0  0  0  0
   -1.8602  108.3250   23.6975 C   0  0  0  0  0  0  0  0  0  0  0  0
    0.5973  106.3782   23.3681 C   0  0  0  0  0  0  0  0  0  0  0  0
    7.8461  108.8876   25.0643 N   0  0  0  0  0  0  0  0  0  0  0  0
  1  2  1  0
  1 14  1  0
  1 26  1  0
  2  8  1  0
  2 19  1  0
  3  9  1  0
  3 19  2  0
  4 11  1  0
  4 13  1  0
  5 18  1  0
  6 25  1  0
  7 20  2  0
  7 21  1  0
  8 22  2  0
  9 22  1  0
 10 13  1  0
 10 27  1  0
 10 30  1  0
 11 14  1  0
 11 27  1  0
 12 24  1  0
 12 26  2  0
 15 17  1  0
 15 21  2  0
 16 17  2  0
 16 20  1  0
 18 23  1  0
 18 29  1  0
 19 29  1  0
 21 23  1  0
 23 28  1  0
 24 29  1  0
 25 30  1  0
M  END
>  <ID>  (1) 
conformer_0

$$$$
