
     RDKit          3D

 24 25  0  0  0  0  0  0  0  0999 V2000
   -2.7586  108.1319   23.9832 C   0  0  0  0  0  0  0  0  0  0  0  0
   -2.6739  108.7179   21.1480 C   0  0  0  0  0  0  0  0  0  0  0  0
    4.2247  106.7554   24.8574 N   0  0  0  0  0  0  0  0  0  0  0  0
    2.7915  107.7089   23.1775 C   0  0  0  0  0  0  0  0  0  0  0  0
   -0.4964  108.2391   19.5784 C   0  0  0  0  0  0  0  0  0  0  0  0
   -0.4004  108.2975   24.1122 N   0  0  0  0  0  0  0  0  0  0  0  0
   -1.6455  108.6894   19.0027 C   0  0  0  0  0  0  0  0  0  0  0  0
   -3.3960  106.9940   23.9296 O   0  0  0  0  0  0  0  0  0  0  0  0
   -0.4001  108.0283   20.9147 N   0  0  0  0  0  0  0  0  0  0  0  0
    7.4997  109.3832   23.7731 O   0  0  0  0  0  0  0  0  0  0  0  0
    2.0392  105.9550   24.6395 C   0  0  0  0  0  0  0  0  0  0  0  0
   -2.7952  108.9238   19.7916 C   0  0  0  0  0  0  0  0  0  0  0  0
    6.0996  110.8860   24.5801 O   0  0  0  0  0  0  0  0  0  0  0  0
   -1.5349  108.3814   23.2802 C   0  0  0  0  0  0  0  0  0  0  0  0
    5.0741  108.8792   23.9741 C   0  0  0  0  0  0  0  0  0  0  0  0
    3.0258  106.7938   24.1945 C   0  0  0  0  0  0  0  0  0  0  0  0
    0.5900  107.4858   23.6573 C   0  0  0  0  0  0  0  0  0  0  0  0
    6.3614  109.7199   24.2028 C   0  0  0  0  0  0  0  0  0  0  0  0
    0.7618  106.2716   24.3164 C   0  0  0  0  0  0  0  0  0  0  0  0
    4.7700  108.0053   25.2297 C   0  0  0  0  0  0  0  0  0  0  0  0
   -1.4665  108.3409   21.7796 C   0  0  0  0  0  0  0  0  0  0  0  0
    1.5760  108.0541   22.8139 C   0  0  0  0  0  0  0  0  0  0  0  0
   -4.9004  109.3526   23.8542 C   0  0  0  0  0  0  0  0  0  0  0  0
   -3.4734  109.3263   24.4831 C   0  0  0  0  0  0  0  0  0  0  0  0
  1  8  1  0
  1 14  1  0
  1 24  1  0
  2 12  2  0
  2 21  1  0
  3 16  1  0
  3 20  1  0
  4 16  1  0
  4 22  1  0
  5  7  2  0
  5  9  1  0
  6 14  1  0
  6 17  1  0
  7 12  1  0
  9 21  2  0
 10 18  2  0
 11 16  1  0
 11 19  2  0
 13 18  1  0
 14 21  1  0
 15 18  1  0
 15 20  1  0
 17 19  1  0
 17 22  1  0
 23 24  1  0
M  END
>  <ID>  (1) 
conformer_0

$$$$
