
     RDKit          3D

 31 34  0  0  0  0  0  0  0  0999 V2000
   -2.5915  107.8352   22.3997 C   0  0  0  0  0  0  0  0  0  0  0  0
   -1.4075  108.5780   19.0626 C   0  0  0  0  0  0  0  0  0  0  0  0
   -0.5642  107.7700   21.2935 C   0  0  0  0  0  0  0  0  0  0  0  0
    3.5679  104.7710   26.8325 C   0  0  0  0  0  0  0  0  0  0  0  0
    1.1558  104.5599   26.4952 C   0  0  0  0  0  0  0  0  0  0  0  0
   -2.3020  107.3309   24.6517 C   0  0  0  0  0  0  0  0  0  0  0  0
    6.3613  109.9370   24.1626 C   0  0  0  0  0  0  0  0  0  0  0  0
    5.9449  111.0986   24.5006 O   0  0  0  0  0  0  0  0  0  0  0  0
    3.2843  107.8476   23.7870 C   0  0  0  0  0  0  0  0  0  0  0  0
    0.0181  108.4518   18.6596 C   0  0  0  0  0  0  0  0  0  0  0  0
    2.3117  105.5692   26.4845 C   0  0  0  0  0  0  0  0  0  0  0  0
    4.2338  108.7994   23.5758 C   0  0  0  0  0  0  0  0  0  0  0  0
    7.4997  109.7426   23.6816 O   0  0  0  0  0  0  0  0  0  0  0  0
   -4.2161  108.5510   23.9499 O   0  0  0  0  0  0  0  0  0  0  0  0
    0.9543  104.1768   24.9601 C   0  0  0  0  0  0  0  0  0  0  0  0
   -0.1714  106.2991   24.8292 C   0  0  0  0  0  0  0  0  0  0  0  0
    5.5922  107.8518   25.2489 C   0  0  0  0  0  0  0  0  0  0  0  0
   -3.2051  107.8925   23.6835 C   0  0  0  0  0  0  0  0  0  0  0  0
   -1.9226  105.1719   23.3942 C   0  0  0  0  0  0  0  0  0  0  0  0
   -2.6896  107.1324   26.0380 C   0  0  0  0  0  0  0  0  0  0  0  0
   -1.4643  108.6577   20.5730 C   0  0  0  0  0  0  0  0  0  0  0  0
    5.4153  108.8526   24.3281 C   0  0  0  0  0  0  0  0  0  0  0  0
    1.2769  105.7488   22.9745 O   0  0  0  0  0  0  0  0  0  0  0  0
   -2.7238  108.6236   21.2429 C   0  0  0  0  0  0  0  0  0  0  0  0
    4.6395  106.8594   25.4494 C   0  0  0  0  0  0  0  0  0  0  0  0
   -1.1793  107.4023   22.5989 C   0  0  0  0  0  0  0  0  0  0  0  0
   -1.2980  106.5101   23.8490 C   0  0  0  0  0  0  0  0  0  0  0  0
   -2.6836  109.0160   18.4368 C   0  0  0  0  0  0  0  0  0  0  0  0
    3.4377  106.8962   24.7563 C   0  0  0  0  0  0  0  0  0  0  0  0
    2.3666  106.0445   25.0865 N   0  0  0  0  0  0  0  0  0  0  0  0
    1.1226  105.6455   24.3429 C   0  0  0  0  0  0  0  0  0  0  0  0
  1 18  1  0
  1 24  1  0
  1 26  1  0
  2 10  1  0
  2 21  1  0
  2 28  1  0
  3 21  1  0
  3 26  1  0
  4 11  1  0
  5 11  1  0
  5 15  1  0
  6 18  1  0
  6 20  1  0
  6 27  1  0
  7  8  2  0
  7 13  1  0
  7 22  1  0
  9 12  2  0
  9 29  1  0
 11 30  1  0
 12 22  1  0
 14 18  2  0
 15 31  1  0
 16 27  1  0
 16 31  1  0
 17 22  2  0
 17 25  1  0
 19 27  1  0
 21 24  1  0
 23 31  1  0
 25 29  2  0
 26 27  1  0
 29 30  1  0
 30 31  1  0
M  END
>  <ID>  (1) 
conformer_0

$$$$
