
     RDKit          3D

 33 36  0  0  0  0  0  0  0  0999 V2000
    6.7336  107.8049   25.6124 C   0  0  0  0  0  0  0  0  0  0  0  0
    0.2755  103.7220   27.4683 N   0  0  0  0  0  0  0  0  0  0  0  0
    2.9170  107.3218   24.0666 O   0  0  0  0  0  0  0  0  0  0  0  0
    5.8023  106.7293   26.0960 C   0  0  0  0  0  0  0  0  0  0  0  0
    0.8788  103.4803   28.6413 C   0  0  0  0  0  0  0  0  0  0  0  0
    1.4159  105.8936   24.7914 C   0  0  0  0  0  0  0  0  0  0  0  0
    2.1233  104.0036   28.9621 C   0  0  0  0  0  0  0  0  0  0  0  0
    0.3550  105.0929   25.3278 C   0  0  0  0  0  0  0  0  0  0  0  0
   -0.4047  107.9772   21.1881 C   0  0  0  0  0  0  0  0  0  0  0  0
    2.1329  105.0105   26.7919 C   0  0  0  0  0  0  0  0  0  0  0  0
   -2.7206  109.0433   22.2049 C   0  0  0  0  0  0  0  0  0  0  0  0
   -2.8067  107.9383   20.2823 C   0  0  0  0  0  0  0  0  0  0  0  0
    0.1078  106.9321   23.1449 C   0  0  0  0  0  0  0  0  0  0  0  0
   -2.5626  110.2571   19.5991 F   0  0  0  0  0  0  0  0  0  0  0  0
    3.4797  106.6850   25.1970 C   0  0  0  0  0  0  0  0  0  0  0  0
   -2.4646  108.9547   19.4368 C   0  0  0  0  0  0  0  0  0  0  0  0
    6.2096  110.8621   23.5398 N   0  0  0  0  0  0  0  0  0  0  0  0
   -0.7905  107.6696   22.3950 N   0  0  0  0  0  0  0  0  0  0  0  0
    0.7629  108.1241   20.9478 O   0  0  0  0  0  0  0  0  0  0  0  0
    1.4852  106.9914   23.8918 C   0  0  0  0  0  0  0  0  0  0  0  0
   -2.9291  108.7216   18.1719 F   0  0  0  0  0  0  0  0  0  0  0  0
    8.0350  109.6660   24.1492 O   0  0  0  0  0  0  0  0  0  0  0  0
   -0.7715  107.6681   18.8675 F   0  0  0  0  0  0  0  0  0  0  0  0
   -1.4530  108.1073   20.0696 C   0  0  0  0  0  0  0  0  0  0  0  0
   -2.0613  107.9874   22.8626 C   0  0  0  0  0  0  0  0  0  0  0  0
    6.7770  109.8235   24.1832 C   0  0  0  0  0  0  0  0  0  0  0  0
   -0.2223  105.4928   22.7132 C   0  0  0  0  0  0  0  0  0  0  0  0
    0.8687  104.5621   26.5511 C   0  0  0  0  0  0  0  0  0  0  0  0
   -3.6599  108.5119   21.2779 C   0  0  0  0  0  0  0  0  0  0  0  0
    4.4305  107.1990   26.1702 C   0  0  0  0  0  0  0  0  0  0  0  0
    2.5776  105.7734   25.6855 C   0  0  0  0  0  0  0  0  0  0  0  0
    5.8984  108.9461   24.9545 C   0  0  0  0  0  0  0  0  0  0  0  0
    2.7155  104.7471   27.9714 C   0  0  0  0  0  0  0  0  0  0  0  0
  1  4  1  0
  1 32  1  0
  2  5  2  0
  2 28  1  0
  3 15  1  0
  3 20  1  0
  4 30  1  0
  5  7  1  0
  6  8  1  0
  6 20  1  0
  6 31  1  0
  7 33  1  0
  8 28  1  0
  9 18  1  0
  9 19  2  0
  9 24  1  0
 10 28  1  0
 10 31  1  0
 10 33  2  0
 11 25  1  0
 11 29  1  0
 12 16  1  0
 12 24  1  0
 12 29  1  0
 13 18  1  0
 13 20  1  0
 13 27  1  0
 14 16  1  0
 15 30  1  0
 15 31  1  0
 16 21  1  0
 17 26  1  0
 18 25  1  0
 22 26  2  0
 23 24  1  0
 26 32  1  0
M  END
>  <ID>  (1) 
conformer_0

$$$$
