
     RDKit          3D

 26 27  0  0  0  0  0  0  0  0999 V2000
    0.4640  106.6184   22.1803 O   0  0  0  0  0  0  0  0  0  0  0  0
    2.4291  105.9490   24.6352 C   0  0  0  0  0  0  0  0  0  0  0  0
    2.2912  107.1930   23.9682 N   0  0  0  0  0  0  0  0  0  0  0  0
    0.0169  104.9657   24.3690 C   0  0  0  0  0  0  0  0  0  0  0  0
    3.4071  107.8938   24.0063 C   0  0  0  0  0  0  0  0  0  0  0  0
   -0.7415  108.0418   20.4422 C   0  0  0  0  0  0  0  0  0  0  0  0
   -1.0593  108.3762   22.8945 C   0  0  0  0  0  0  0  0  0  0  0  0
    7.1849  109.4817   24.9594 C   0  0  0  0  0  0  0  0  0  0  0  0
   -0.2721  107.2010   23.1199 C   0  0  0  0  0  0  0  0  0  0  0  0
    5.6534  109.3846   25.0619 C   0  0  0  0  0  0  0  0  0  0  0  0
    3.6846  106.0552   25.2108 N   0  0  0  0  0  0  0  0  0  0  0  0
    5.1326  108.1858   25.7629 C   0  0  0  0  0  0  0  0  0  0  0  0
   -1.5325  108.4823   21.5098 C   0  0  0  0  0  0  0  0  0  0  0  0
    7.7633  109.2822   23.8357 O   0  0  0  0  0  0  0  0  0  0  0  0
   -0.5120  106.4185   24.4124 C   0  0  0  0  0  0  0  0  0  0  0  0
    7.7737  110.0481   25.9246 O   0  0  0  0  0  0  0  0  0  0  0  0
   -0.9811  108.1675   19.1289 C   0  0  0  0  0  0  0  0  0  0  0  0
   -3.1943  109.3198   19.0274 C   0  0  0  0  0  0  0  0  0  0  0  0
   -2.0401  108.7325   18.5346 C   0  0  0  0  0  0  0  0  0  0  0  0
    0.1213  104.2179   23.1123 O   0  0  0  0  0  0  0  0  0  0  0  0
    4.9600  110.0132   24.1174 O   0  0  0  0  0  0  0  0  0  0  0  0
    1.3917  104.9088   25.0889 C   0  0  0  0  0  0  0  0  0  0  0  0
   -3.5502  109.4389   20.3546 C   0  0  0  0  0  0  0  0  0  0  0  0
    1.7609  103.6013   25.3827 O   0  0  0  0  0  0  0  0  0  0  0  0
    4.2144  107.3311   25.0056 C   0  0  0  0  0  0  0  0  0  0  0  0
   -2.7831  109.0685   21.4067 C   0  0  0  0  0  0  0  0  0  0  0  0
  1  9  1  0
  2  3  2  0
  2 11  1  0
  2 22  1  0
  3  5  1  0
  4 15  1  0
  4 20  1  0
  4 22  1  0
  5 25  1  0
  6 13  2  0
  6 17  1  0
  7  9  1  0
  7 13  1  0
  8 10  1  0
  8 14  2  0
  8 16  1  0
  9 15  1  0
 10 12  1  0
 10 21  1  0
 11 25  1  0
 12 25  1  0
 13 26  1  0
 17 19  2  0
 18 19  1  0
 18 23  1  0
 22 24  1  0
 23 26  2  0
M  END
>  <ID>  (1) 
conformer_0

$$$$
