
     RDKit          3D

 25 27  0  0  0  0  0  0  0  0999 V2000
   -2.6902  109.3608   18.8787 C   0  0  0  0  0  0  0  0  0  0  0  0
   -0.7037  107.8985   21.8622 O   0  0  0  0  0  0  0  0  0  0  0  0
    5.3672  108.0663   25.2667 C   0  0  0  0  0  0  0  0  0  0  0  0
   -3.1468  108.7316   22.9971 C   0  0  0  0  0  0  0  0  0  0  0  0
   -0.9962  107.5629   18.8173 O   0  0  0  0  0  0  0  0  0  0  0  0
    5.7239  108.8819   24.0620 O   0  0  0  0  0  0  0  0  0  0  0  0
   -1.7622  108.2720   20.9763 C   0  0  0  0  0  0  0  0  0  0  0  0
    1.5501  106.6338   23.9394 C   0  0  0  0  0  0  0  0  0  0  0  0
    3.5297  107.8918   23.6328 C   0  0  0  0  0  0  0  0  0  0  0  0
    7.7325  109.0831   25.0062 C   0  0  0  0  0  0  0  0  0  0  0  0
    0.1378  106.2267   23.5393 C   0  0  0  0  0  0  0  0  0  0  0  0
   -0.8512  107.2642   23.2125 C   0  0  0  0  0  0  0  0  0  0  0  0
    0.1487  105.0885   22.6985 O   0  0  0  0  0  0  0  0  0  0  0  0
    6.7737  108.1645   25.9245 C   0  0  0  0  0  0  0  0  0  0  0  0
    2.1146  106.1465   25.1114 C   0  0  0  0  0  0  0  0  0  0  0  0
   -4.1866  109.4246   23.5725 O   0  0  0  0  0  0  0  0  0  0  0  0
   -1.9845  108.2046   23.8189 C   0  0  0  0  0  0  0  0  0  0  0  0
    4.0833  107.4744   24.8416 C   0  0  0  0  0  0  0  0  0  0  0  0
    6.5863  109.8911   24.3231 C   0  0  0  0  0  0  0  0  0  0  0  0
   -2.9377  109.0398   21.5673 C   0  0  0  0  0  0  0  0  0  0  0  0
    8.7942  109.1096   23.8962 O   0  0  0  0  0  0  0  0  0  0  0  0
    6.7697  110.7665   23.4336 O   0  0  0  0  0  0  0  0  0  0  0  0
    3.3687  106.5664   25.5706 C   0  0  0  0  0  0  0  0  0  0  0  0
    2.3355  107.4995   23.2023 C   0  0  0  0  0  0  0  0  0  0  0  0
   -1.5869  108.5347   19.5294 C   0  0  0  0  0  0  0  0  0  0  0  0
  1 25  1  0
  2  7  1  0
  2 12  1  0
  3  6  1  0
  3 14  1  0
  3 18  1  0
  4 16  1  0
  4 17  1  0
  4 20  1  0
  5 25  1  0
  6 19  1  0
  7 20  1  0
  7 25  1  0
  8 11  1  0
  8 15  1  0
  8 24  2  0
  9 18  2  0
  9 24  1  0
 10 14  1  0
 10 19  1  0
 10 21  1  0
 11 12  1  0
 11 13  1  0
 12 17  1  0
 15 23  2  0
 18 23  1  0
 19 22  1  0
M  END
>  <ID>  (1) 
conformer_0

$$$$
