
     RDKit          3D

 33 38  0  0  0  0  0  0  0  0999 V2000
    6.9315  109.4499   25.1039 N   0  0  0  0  0  0  0  0  0  0  0  0
    5.1796  107.9042   25.6267 C   0  0  0  0  0  0  0  0  0  0  0  0
   -2.3624  108.2339   23.6180 O   0  0  0  0  0  0  0  0  0  0  0  0
   -3.4047  108.7999   20.0383 C   0  0  0  0  0  0  0  0  0  0  0  0
   -3.3421  107.8401   24.5496 C   0  0  0  0  0  0  0  0  0  0  0  0
    1.4998  106.8741   22.9545 C   0  0  0  0  0  0  0  0  0  0  0  0
    4.8995  109.0552   23.7245 C   0  0  0  0  0  0  0  0  0  0  0  0
    0.7791  107.3610   21.9335 C   0  0  0  0  0  0  0  0  0  0  0  0
   -0.4341  107.0001   24.4623 C   0  0  0  0  0  0  0  0  0  0  0  0
    5.8030  107.6466   26.8052 C   0  0  0  0  0  0  0  0  0  0  0  0
    2.6394  106.3406   22.5864 O   0  0  0  0  0  0  0  0  0  0  0  0
   -2.0713  107.1342   26.3821 C   0  0  0  0  0  0  0  0  0  0  0  0
    7.0249  108.2711   27.1336 C   0  0  0  0  0  0  0  0  0  0  0  0
   -1.3535  108.0368   21.0136 C   0  0  0  0  0  0  0  0  0  0  0  0
   -0.7423  108.0720   19.7526 C   0  0  0  0  0  0  0  0  0  0  0  0
    1.6997  106.2193   25.3803 C   0  0  0  0  0  0  0  0  0  0  0  0
   -2.8020  108.8573   18.8022 C   0  0  0  0  0  0  0  0  0  0  0  0
   -0.5035  105.3837   26.0967 N   0  0  0  0  0  0  0  0  0  0  0  0
    7.5758  109.1714   26.2543 C   0  0  0  0  0  0  0  0  0  0  0  0
   -0.5498  107.6322   22.1363 C   0  0  0  0  0  0  0  0  0  0  0  0
   -1.1057  107.6026   23.4109 C   0  0  0  0  0  0  0  0  0  0  0  0
   -1.2512  106.4109   25.5133 C   0  0  0  0  0  0  0  0  0  0  0  0
    5.7499  108.8324   24.8165 C   0  0  0  0  0  0  0  0  0  0  0  0
   -2.6738  108.3969   21.1121 C   0  0  0  0  0  0  0  0  0  0  0  0
   -4.6797  109.1413   20.2053 O   0  0  0  0  0  0  0  0  0  0  0  0
    3.0330  106.5518   25.4661 N   0  0  0  0  0  0  0  0  0  0  0  0
   -2.7417  106.5864   25.2486 C   0  0  0  0  0  0  0  0  0  0  0  0
    0.9111  105.2872   26.1387 C   0  0  0  0  0  0  0  0  0  0  0  0
    3.7063  108.3197   23.9322 N   0  0  0  0  0  0  0  0  0  0  0  0
   -1.2965  104.4973   26.7132 O   0  0  0  0  0  0  0  0  0  0  0  0
    3.9173  107.4882   25.0650 C   0  0  0  0  0  0  0  0  0  0  0  0
   -1.4736  108.4952   18.6944 C   0  0  0  0  0  0  0  0  0  0  0  0
    0.9259  106.7884   24.3158 C   0  0  0  0  0  0  0  0  0  0  0  0
  1 19  2  0
  1 23  1  0
  2 10  1  0
  2 23  1  0
  2 31  2  0
  3  5  1  0
  3 21  1  0
  4 17  1  0
  4 24  2  0
  4 25  1  0
  5 27  1  0
  6  8  2  0
  6 11  1  0
  6 33  1  0
  7 23  1  0
  7 29  1  0
  8 20  1  0
  9 21  1  0
  9 22  1  0
  9 33  1  0
 10 13  2  0
 12 22  1  0
 12 27  1  0
 13 19  1  0
 14 15  1  0
 14 20  2  3
 14 24  1  0
 15 32  2  0
 16 26  1  0
 16 28  1  0
 16 33  1  0
 17 32  1  0
 18 22  1  0
 18 28  1  0
 18 30  1  0
 20 21  1  0
 26 31  1  0
 29 31  1  0
M  END
>  <ID>  (1) 
conformer_0

$$$$
