
     RDKit          3D

 15 14  0  0  0  0  0  0  0  0999 V2000
    4.2359  107.4666   25.1001 C   0  0  0  0  0  0  0  0  0  0  0  0
    6.3428  109.7471   24.0605 C   0  0  0  0  0  0  0  0  0  0  0  0
   -1.4088  108.4299   20.0885 C   0  0  0  0  0  0  0  0  0  0  0  0
   -0.9185  107.7372   21.0581 C   0  0  0  0  0  0  0  0  0  0  0  0
    3.3035  106.4310   24.6168 C   0  0  0  0  0  0  0  0  0  0  0  0
   -2.3482  109.6272   20.1361 C   0  0  0  0  0  0  0  0  0  0  0  0
    4.0991  108.7290   24.4806 N   0  0  0  0  0  0  0  0  0  0  0  0
    2.4825  106.9562   23.5548 N   0  0  0  0  0  0  0  0  0  0  0  0
    1.1419  106.2975   23.6359 C   0  0  0  0  0  0  0  0  0  0  0  0
    0.2185  107.2129   23.0186 C   0  0  0  0  0  0  0  0  0  0  0  0
    5.0603  109.6840   24.8819 C   0  0  0  0  0  0  0  0  0  0  0  0
    7.0992  108.7771   23.9268 O   0  0  0  0  0  0  0  0  0  0  0  0
   -0.7212  106.7371   21.9574 C   0  0  0  0  0  0  0  0  0  0  0  0
   -0.8342  108.3195   18.6723 C   0  0  0  0  0  0  0  0  0  0  0  0
    6.5588  110.8328   23.3791 O   0  0  0  0  0  0  0  0  0  0  0  0
  1  5  1  0
  1  7  1  0
  2 11  1  0
  2 12  2  0
  2 15  1  0
  3  4  1  0
  3  6  1  0
  3 14  1  0
  4 13  1  0
  5  8  1  0
  7 11  1  0
  8  9  1  0
  9 10  1  0
 10 13  1  0
M  END
>  <ID>  (1) 
conformer_0

$$$$
