
     RDKit          3D

 36 40  0  0  0  0  0  0  0  0999 V2000
   -2.3889  108.6236   20.7392 C   0  0  0  0  0  0  0  0  0  0  0  0
    3.0676  103.1259   27.1593 C   0  0  0  0  0  0  0  0  0  0  0  0
    1.6703  103.0430   26.9531 N   0  0  0  0  0  0  0  0  0  0  0  0
    2.2821  103.2135   28.3178 C   0  0  0  0  0  0  0  0  0  0  0  0
    5.4370  108.4188   24.8161 C   0  0  0  0  0  0  0  0  0  0  0  0
   -2.3623  106.3218   25.7102 N   0  0  0  0  0  0  0  0  0  0  0  0
   -3.2175  109.4516   18.8206 C   0  0  0  0  0  0  0  0  0  0  0  0
   -3.2328  108.6890   23.0670 C   0  0  0  0  0  0  0  0  0  0  0  0
    7.7894  108.9721   23.8800 O   0  0  0  0  0  1  0  0  0  0  0  0
   -1.3961  105.4269   25.8961 N   0  0  0  0  0  0  0  0  0  0  0  0
    3.2568  106.7557   24.9211 C   0  0  0  0  0  0  0  0  0  0  0  0
    1.3790  103.6322   24.4995 O   0  0  0  0  0  0  0  0  0  0  0  0
    6.7607  109.4927   24.7347 S   0  0  0  0  0  4  0  0  0  0  0  0
    6.3083  110.7617   24.2417 O   0  0  0  0  0  1  0  0  0  0  0  0
   -2.2835  107.1952   24.6485 C   0  0  0  0  0  0  0  0  0  0  0  0
   -0.1409  107.1339   21.6880 C   0  0  0  0  0  0  0  0  0  0  0  0
   -3.4419  109.3862   20.2173 C   0  0  0  0  0  0  0  0  0  0  0  0
    4.4591  108.5038   23.8661 C   0  0  0  0  0  0  0  0  0  0  0  0
   -0.2234  105.5540   25.1978 N   0  0  0  0  0  0  0  0  0  0  0  0
   -1.2078  107.1329   23.8140 C   0  0  0  0  0  0  0  0  0  0  0  0
    1.1875  106.7247   23.9163 N   0  0  0  0  0  0  0  0  0  0  0  0
   -3.2492  108.1389   24.3321 C   0  0  0  0  0  0  0  0  0  0  0  0
   -2.0582  108.6984   18.5272 C   0  0  0  0  0  0  0  0  0  0  0  0
    5.2965  107.4774   25.8399 C   0  0  0  0  0  0  0  0  0  0  0  0
   -1.5646  108.1832   19.7482 C   0  0  0  0  0  0  0  0  0  0  0  0
    3.4250  107.7027   23.9101 C   0  0  0  0  0  0  0  0  0  0  0  0
    2.0395  106.0397   24.8101 C   0  0  0  0  0  0  0  0  0  0  0  0
    1.1509  104.8765   25.3314 C   0  0  0  0  0  0  0  0  0  0  0  0
   -2.2759  108.3051   22.1122 C   0  0  0  0  0  0  0  0  0  0  0  0
    1.0601  104.3276   26.7957 C   0  0  0  0  0  0  0  0  0  0  0  0
    4.1878  106.6459   25.9033 C   0  0  0  0  0  0  0  0  0  0  0  0
   -1.1894  107.5422   22.4890 C   0  0  0  0  0  0  0  0  0  0  0  0
   -0.0652  106.5292   24.2954 C   0  0  0  0  0  0  0  0  0  0  0  0
    1.0316  107.3605   21.3961 O   0  0  0  0  0  0  0  0  0  0  0  0
    7.2615  109.7284   26.2134 N   0  0  0  0  0  0  0  0  0  0  0  0
    1.8943  103.7534   23.1021 C   0  0  0  0  0  0  0  0  0  0  0  0
  1 17  1  0
  1 25  1  0
  1 29  2  3
  2  3  1  0
  2  4  1  0
  3 30  1  0
  5 13  1  0
  5 18  2  0
  5 24  1  0
  6 10  1  0
  6 15  2  0
  7 17  1  0
  7 23  1  0
  8 22  2  0
  8 29  1  0
  9 13  1  0
 10 19  1  0
 11 26  2  0
 11 27  1  0
 11 31  1  0
 12 28  1  0
 12 36  1  0
 13 14  1  0
 13 35  1  0
 15 20  1  0
 15 22  1  0
 16 32  1  0
 16 34  2  0
 18 26  1  0
 19 28  1  0
 19 33  1  0
 20 32  2  0
 20 33  1  0
 21 27  1  0
 21 33  2  0
 23 25  1  0
 24 31  2  0
 27 28  1  0
 28 30  1  0
 29 32  1  0
M  END
>  <ID>  (1) 
conformer_0

$$$$
