
     RDKit          3D

 28 31  0  0  0  0  0  0  0  0999 V2000
   -0.7001  106.9666   22.6941 C   0  0  0  0  0  0  0  0  0  0  0  0
   -3.4307  109.4944   19.6710 C   0  0  0  0  0  0  0  0  0  0  0  0
    5.7346  108.3568   25.5794 C   0  0  0  0  0  0  0  0  0  0  0  0
    0.7160  105.4039   23.9768 C   0  0  0  0  0  0  0  0  0  0  0  0
    4.7424  108.8032   24.6963 C   0  0  0  0  0  0  0  0  0  0  0  0
   -2.5561  109.0807   18.6708 C   0  0  0  0  0  0  0  0  0  0  0  0
    3.9237  106.6613   25.0652 C   0  0  0  0  0  0  0  0  0  0  0  0
    5.3703  107.5822   26.7104 C   0  0  0  0  0  0  0  0  0  0  0  0
   -3.2072  109.0682   20.9811 C   0  0  0  0  0  0  0  0  0  0  0  0
   -2.6072  108.0840   23.6047 N   0  0  0  0  0  0  0  0  0  0  0  0
    3.7441  107.8923   24.4113 C   0  0  0  0  0  0  0  0  0  0  0  0
    3.0745  105.5643   24.5962 C   0  0  0  0  0  0  0  0  0  0  0  0
    8.4615  109.0712   23.9587 O   0  0  0  0  0  0  0  0  0  0  0  0
    2.3681  105.0357   25.7894 C   0  0  0  0  0  0  0  0  0  0  0  0
   -1.2736  106.6666   24.9338 C   0  0  0  0  0  0  0  0  0  0  0  0
   -1.2297  107.8368   20.2036 C   0  0  0  0  0  0  0  0  0  0  0  0
    7.4229  109.6942   24.3931 C   0  0  0  0  0  0  0  0  0  0  0  0
   -2.3324  107.5160   24.8081 C   0  0  0  0  0  0  0  0  0  0  0  0
    4.4570  106.5804   26.3952 C   0  0  0  0  0  0  0  0  0  0  0  0
    0.9300  105.0081   25.4081 S   0  0  0  0  0  0  0  0  0  0  0  0
   -2.1013  108.2617   21.2228 C   0  0  0  0  0  0  0  0  0  0  0  0
    6.8750  109.2709   25.7436 C   0  0  0  0  0  0  0  0  0  0  0  0
   -1.8149  107.7848   22.5485 C   0  0  0  0  0  0  0  0  0  0  0  0
    2.0270  106.0172   23.6194 C   0  0  0  0  0  0  0  0  0  0  0  0
    6.8810  110.5759   23.6490 O   0  0  0  0  0  0  0  0  0  0  0  0
   -3.1213  107.7709   25.8495 F   0  0  0  0  0  0  0  0  0  0  0  0
   -0.4377  106.3576   23.8691 C   0  0  0  0  0  0  0  0  0  0  0  0
   -1.4843  108.2456   18.9553 C   0  0  0  0  0  0  0  0  0  0  0  0
  1 23  1  0
  1 27  2  0
  2  6  2  0
  2  9  1  0
  3  5  1  0
  3  8  1  0
  3 22  1  0
  4 20  1  0
  4 24  1  0
  4 27  1  0
  5 11  1  0
  6 28  1  0
  7 11  1  0
  7 12  1  0
  7 19  1  0
  8 19  1  0
  9 21  1  0
 10 18  2  0
 10 23  1  0
 12 14  1  0
 12 24  1  0
 13 17  2  0
 14 20  1  0
 15 18  1  0
 15 27  1  0
 16 21  1  0
 16 28  2  0
 17 22  1  0
 17 25  1  0
 18 26  1  0
 21 23  2  3
M  END
>  <ID>  (1) 
conformer_0

$$$$
