
     RDKit          3D

 18 18  0  0  0  0  0  0  0  0999 V2000
    3.7420  106.9668   25.0374 C   0  0  0  0  0  0  0  0  0  0  0  0
    5.1729  108.8187   24.4931 C   0  0  0  0  0  0  0  0  0  0  0  0
   -1.5661  109.7598   20.3621 C   0  0  0  0  0  0  0  0  0  0  0  0
    4.8589  107.7511   25.2841 C   0  0  0  0  0  0  0  0  0  0  0  0
    0.7731  106.8467   22.9933 C   0  0  0  0  0  0  0  0  0  0  0  0
   -0.9083  108.4372   22.3749 C   0  0  0  0  0  0  0  0  0  0  0  0
    3.1150  108.4347   23.2029 C   0  0  0  0  0  0  0  0  0  0  0  0
    0.2491  105.8452   22.3757 O   0  0  0  0  0  0  0  0  0  0  0  0
   -1.1052  108.4337   20.9261 C   0  0  0  0  0  0  0  0  0  0  0  0
    6.3323  109.6453   24.7618 C   0  0  0  0  0  0  0  0  0  0  0  0
   -1.2454  107.4715   20.0578 O   0  0  0  0  0  0  0  0  0  0  0  0
    0.4842  108.2022   22.7904 O   0  0  0  0  0  0  0  0  0  0  0  0
    6.8790  110.2961   23.8196 O   0  0  0  0  0  0  0  0  0  0  0  0
    1.7441  106.5598   23.8818 N   0  0  0  0  0  0  0  0  0  0  0  0
   -3.0162  109.9602   20.0524 C   0  0  0  0  0  0  0  0  0  0  0  0
    4.2748  109.1239   23.4297 C   0  0  0  0  0  0  0  0  0  0  0  0
    6.8133  109.6692   25.9768 O   0  0  0  0  0  0  0  0  0  0  0  0
    2.8945  107.3254   24.0332 C   0  0  0  0  0  0  0  0  0  0  0  0
  1  4  2  0
  1 18  1  0
  2  4  1  0
  2 10  1  0
  2 16  2  0
  3  9  1  0
  3 15  1  0
  5  8  2  0
  5 12  1  0
  5 14  1  0
  6  9  1  0
  6 12  1  0
  7 16  1  0
  7 18  2  0
  9 11  1  0
 10 13  2  0
 10 17  1  0
 14 18  1  0
M  END
>  <ID>  (1) 
conformer_0

$$$$
