
     RDKit          3D

 19 20  0  0  0  0  0  0  0  0999 V2000
    1.1518  107.8274   22.6805 N   0  0  0  0  0  0  0  0  0  0  0  0
    4.8258  108.2728   24.4668 C   0  0  0  0  0  0  0  0  0  0  0  0
    3.0214  106.8577   24.5209 C   0  0  0  0  0  0  0  0  0  0  0  0
   -2.5342  109.4176   20.0018 C   0  0  0  0  0  0  0  0  0  0  0  0
    0.7609  107.0733   23.9166 C   0  0  0  0  0  0  0  0  0  0  0  0
   -0.7941  108.2337   18.8810 C   0  0  0  0  0  0  0  0  0  0  0  0
    7.0597  108.8464   23.9793 O   0  0  0  0  0  0  0  0  0  0  0  0
    3.9654  106.3629   25.3889 C   0  0  0  0  0  0  0  0  0  0  0  0
    5.0512  107.2032   25.3479 N   0  0  0  0  0  0  0  0  0  0  0  0
    5.6944  110.5059   24.4362 O   0  0  0  0  0  0  0  0  0  0  0  0
   -0.5099  109.0532   23.4815 O   0  0  0  0  0  0  0  0  0  0  0  0
   -0.0301  108.4680   22.5307 C   0  0  0  0  0  0  0  0  0  0  0  0
    3.5288  108.0645   23.9661 C   0  0  0  0  0  0  0  0  0  0  0  0
    1.7472  106.1280   24.3666 C   0  0  0  0  0  0  0  0  0  0  0  0
   -0.6872  108.5231   21.2450 C   0  0  0  0  0  0  0  0  0  0  0  0
   -1.8934  109.1819   21.2066 C   0  0  0  0  0  0  0  0  0  0  0  0
   -0.1478  108.0035   20.0918 C   0  0  0  0  0  0  0  0  0  0  0  0
    5.8920  109.2770   24.2589 C   0  0  0  0  0  0  0  0  0  0  0  0
   -1.9532  108.9333   18.8570 C   0  0  0  0  0  0  0  0  0  0  0  0
  1  5  1  0
  1 12  1  0
  2  9  1  0
  2 13  1  0
  2 18  1  0
  3  8  1  0
  3 13  1  0
  3 14  1  0
  4 16  2  0
  4 19  1  0
  5 14  1  0
  6 17  1  0
  6 19  2  0
  7 18  2  0
  8  9  1  0
 10 18  1  0
 11 12  2  0
 12 15  1  0
 15 16  1  0
 15 17  2  0
M  END
>  <ID>  (1) 
conformer_0

$$$$
