
     RDKit          3D

 14 15  0  0  0  0  0  0  0  0999 V2000
    3.6195  107.8923   24.2282 C   0  0  0  0  0  0  0  0  0  0  0  0
    1.3659  106.9904   23.3367 C   0  0  0  0  0  0  0  0  0  0  0  0
    4.0163  107.8117   25.5454 C   0  0  0  0  0  0  0  0  0  0  0  0
    4.5222  108.8145   23.6142 O   0  0  0  0  0  0  0  0  0  0  0  0
   -1.7232  109.1173   20.7222 C   0  0  0  0  0  0  0  0  0  0  0  0
    5.4080  109.3339   24.6010 C   0  0  0  0  0  0  0  0  0  0  0  0
   -0.3556  108.1102   22.1991 C   0  0  0  0  0  0  0  0  0  0  0  0
    0.2573  107.8327   23.3093 N   0  0  0  0  0  0  0  0  0  0  0  0
   -1.3453  109.0135   22.1042 N   0  0  0  0  0  0  0  0  0  0  0  0
    5.0825  108.7080   25.7952 C   0  0  0  0  0  0  0  0  0  0  0  0
    2.6089  107.2545   23.6399 C   0  0  0  0  0  0  0  0  0  0  0  0
   -0.0462  107.6294   20.9784 N   0  0  0  0  0  0  0  0  0  0  0  0
    6.3629  110.1929   24.4523 O   0  0  0  0  0  0  0  0  0  0  0  0
   -0.9045  108.2680   20.0320 C   0  0  0  0  0  0  0  0  0  0  0  0
  1  3  1  0
  1  4  1  0
  1 11  2  0
  2  8  1  0
  2 11  2  0
  3 10  1  0
  4  6  1  0
  5  9  1  0
  5 14  1  0
  6 10  1  0
  6 13  2  0
  7  8  2  3
  7  9  1  0
  7 12  1  0
 12 14  1  0
M  END
>  <ID>  (1) 
conformer_0

$$$$
