
     RDKit          3D

 24 25  0  0  0  0  0  0  0  0999 V2000
    4.2885  107.9650   24.9459 C   0  0  0  0  0  0  0  0  0  0  0  0
    3.3954  106.9227   24.5535 C   0  0  0  0  0  0  0  0  0  0  0  0
    8.7763  108.6552   26.4311 O   0  0  0  0  0  0  0  0  0  0  0  0
   -1.0221  108.2853   19.0192 C   0  0  0  0  0  0  0  0  0  0  0  0
    6.8652  109.1378   27.6659 O   0  0  0  0  0  0  0  0  0  0  0  0
    2.6068  107.2857   23.3763 C   0  0  0  0  0  0  0  0  0  0  0  0
   -2.4119  108.8358   21.3526 C   0  0  0  0  0  0  0  0  0  0  0  0
    6.8033  109.0605   24.2086 C   0  0  0  0  0  0  0  0  0  0  0  0
    4.1576  105.7511   27.0524 C   0  0  0  0  0  0  0  0  0  0  0  0
    7.4849  108.6729   26.5934 C   0  0  0  0  0  0  0  0  0  0  0  0
   -0.5263  108.1956   22.7331 C   0  0  0  0  0  0  0  0  0  0  0  0
    5.3373  107.7247   25.8049 C   0  0  0  0  0  0  0  0  0  0  0  0
    6.6660  108.1948   25.4404 C   0  0  0  0  0  0  0  0  0  0  0  0
    0.2365  106.9796   22.9774 C   0  0  0  0  0  0  0  0  0  0  0  0
    2.5116  106.3320   25.4943 C   0  0  0  0  0  0  0  0  0  0  0  0
   -1.1085  108.3493   21.4029 C   0  0  0  0  0  0  0  0  0  0  0  0
    1.2941  107.3398   23.8050 N   0  0  0  0  0  0  0  0  0  0  0  0
   -2.2761  108.8112   18.9614 C   0  0  0  0  0  0  0  0  0  0  0  0
   -3.0138  109.0701   20.1117 C   0  0  0  0  0  0  0  0  0  0  0  0
    8.1368  109.0507   23.6721 O   0  0  0  0  0  0  0  0  0  0  0  0
    4.4649  104.7776   27.8122 O   0  0  0  0  0  0  0  0  0  0  0  0
   -0.3985  108.0449   20.2610 C   0  0  0  0  0  0  0  0  0  0  0  0
    5.1274  106.7857   26.8847 C   0  0  0  0  0  0  0  0  0  0  0  0
    2.8928  105.8210   26.6173 N   0  0  0  0  0  0  0  0  0  0  0  0
  1  2  1  0
  1 12  1  0
  2  6  1  0
  2 15  1  0
  3 10  2  0
  4 18  2  0
  4 22  1  0
  5 10  1  0
  6 17  1  0
  7 16  1  0
  7 19  2  0
  8 13  1  0
  8 20  1  0
  9 21  2  0
  9 23  1  0
  9 24  1  0
 10 13  1  0
 11 14  1  0
 11 16  1  0
 12 13  1  0
 12 23  1  0
 14 17  1  0
 15 24  2  0
 16 22  2  0
 18 19  1  0
M  END
>  <ID>  (1) 
conformer_0

$$$$
