
     RDKit          3D

 24 26  0  0  0  0  0  0  0  0999 V2000
    5.7074  108.6125   25.4660 C   0  0  0  0  0  0  0  0  0  0  0  0
    5.0177  107.5170   25.9674 C   0  0  0  0  0  0  0  0  0  0  0  0
   -1.6986  108.6213   20.3793 C   0  0  0  0  0  0  0  0  0  0  0  0
    3.1702  106.0206   26.0593 O   0  0  0  0  0  0  0  0  0  0  0  0
    5.1751  109.1445   24.2551 C   0  0  0  0  0  0  0  0  0  0  0  0
   -1.9791  108.1680   22.6716 C   0  0  0  0  0  0  0  0  0  0  0  0
   -3.7242  109.1820   21.4429 C   0  0  0  0  0  0  0  0  0  0  0  0
    2.3126  107.1405   23.4576 N   0  0  0  0  0  0  0  0  0  0  0  0
   -0.0808  106.8650   23.0992 C   0  0  0  0  0  0  0  0  0  0  0  0
   -1.2123  107.5850   23.7888 C   0  0  0  0  0  0  0  0  0  0  0  0
    3.4411  107.5823   24.1179 C   0  0  0  0  0  0  0  0  0  0  0  0
    4.1112  108.6182   23.5935 N   0  0  0  0  0  0  0  0  0  0  0  0
   -0.6952  108.6091   19.2944 C   0  0  0  0  0  0  0  0  0  0  0  0
   -3.2451  108.7413   22.6748 C   0  0  0  0  0  0  0  0  0  0  0  0
   -1.3591  107.9805   18.0253 C   0  0  0  0  0  0  0  0  0  0  0  0
    0.0916  106.0943   21.9661 O   0  0  0  0  0  0  0  0  0  0  0  0
    1.0713  106.8013   24.0184 C   0  0  0  0  0  0  0  0  0  0  0  0
    3.8948  107.0131   25.3640 C   0  0  0  0  0  0  0  0  0  0  0  0
    1.0985  105.4093   24.6377 C   0  0  0  0  0  0  0  0  0  0  0  0
    6.8741  109.0754   26.2142 C   0  0  0  0  0  0  0  0  0  0  0  0
   -2.9677  109.1096   20.2953 N   0  0  0  0  0  0  0  0  0  0  0  0
    7.3321  110.2670   26.1717 N   0  0  0  0  0  0  0  0  0  0  0  0
   -1.3752  108.1162   21.5267 N   0  0  0  0  0  0  0  0  0  0  0  0
    2.2746  105.1098   25.5211 C   0  0  0  0  0  0  0  0  0  0  0  0
  1  2  2  0
  1  5  1  0
  1 20  1  0
  2 18  1  0
  3 13  1  0
  3 21  2  0
  3 23  1  0
  4 18  1  0
  4 24  1  0
  5 12  2  0
  6 10  1  0
  6 14  1  0
  6 23  2  0
  7 14  2  0
  7 21  1  0
  8 11  1  0
  8 17  1  0
  9 10  1  0
  9 16  1  0
  9 17  1  0
 11 12  1  0
 11 18  2  0
 13 15  1  0
 17 19  1  0
 19 24  2  0
 20 22  2  0
M  END
>  <ID>  (1) 
conformer_0

$$$$
