
     RDKit          3D

 32 34  0  0  0  0  0  0  0  0999 V2000
    2.8614  107.4673   24.3246 N   0  0  0  0  0  0  0  0  0  0  0  0
   -4.2757  109.2147   21.9827 C   0  0  0  0  0  0  0  0  0  0  0  0
    0.5421  107.3091   24.4547 N   0  0  0  0  0  0  0  0  0  0  0  0
   -3.4654  108.1652   22.2490 O   0  0  0  0  0  0  0  0  0  0  0  0
    3.9727  106.2673   25.9841 O   0  0  0  0  0  0  0  0  0  0  0  0
    6.9076  109.8012   24.2869 P   0  0  0  0  0  4  0  0  0  0  0  0
    2.7399  104.9003   27.6608 C   0  0  0  0  0  0  0  0  0  0  0  0
    1.4147  103.7719   29.3801 C   0  0  0  0  0  0  0  0  0  0  0  0
   -1.8051  108.4966   19.6361 C   0  0  0  0  0  0  0  0  0  0  0  0
   -2.6592  109.4556   19.4461 O   0  0  0  0  0  0  0  0  0  0  0  0
    3.9084  107.3739   25.2349 C   0  0  0  0  0  0  0  0  0  0  0  0
    5.7898  108.6999   24.2845 O   0  0  0  0  0  0  0  0  0  0  0  0
   -0.0650  107.6275   21.0142 C   0  0  0  0  0  0  0  0  0  0  0  0
    0.4604  105.7023   26.3434 N   0  0  0  0  0  0  0  0  0  0  0  0
    1.7641  106.7838   24.6569 C   0  0  0  0  0  0  0  0  0  0  0  0
    7.2860  110.2353   25.7089 O   0  0  0  0  0  1  0  0  0  0  0  0
    8.1894  109.2647   23.6358 O   0  0  0  0  0  0  0  0  0  0  0  0
    5.0192  108.3146   25.4874 C   0  0  0  0  0  0  0  0  0  0  0  0
   -1.3647  108.0245   20.9634 C   0  0  0  0  0  0  0  0  0  0  0  0
    0.5674  107.2702   22.1520 C   0  0  0  0  0  0  0  0  0  0  0  0
    2.8367  105.7049   26.5203 C   0  0  0  0  0  0  0  0  0  0  0  0
   -1.0803  108.0569   18.5634 O   0  0  0  0  0  0  0  0  0  0  0  0
    0.3932  104.9898   27.4879 C   0  0  0  0  0  0  0  0  0  0  0  0
    1.5072  104.5707   28.1642 C   0  0  0  0  0  0  0  0  0  0  0  0
    6.5440  106.4781   25.7125 O   0  0  0  0  0  0  0  0  0  0  0  0
    1.6895  106.0718   25.8517 C   0  0  0  0  0  0  0  0  0  0  0  0
    6.3753  110.9764   23.4598 O   0  0  0  0  0  0  0  0  0  0  0  0
   -2.1170  107.9689   22.1542 C   0  0  0  0  0  0  0  0  0  0  0  0
   -1.4783  107.6248   23.3375 C   0  0  0  0  0  0  0  0  0  0  0  0
    5.6815  107.4868   27.6768 O   0  0  0  0  0  0  0  0  0  0  0  0
   -0.1269  107.3494   23.3419 C   0  0  0  0  0  0  0  0  0  0  0  0
    5.9725  107.4844   26.3630 C   0  0  0  0  0  0  0  0  0  0  0  0
  1 11  1  0
  1 15  2  0
  2  4  1  0
  3 15  1  0
  3 31  1  0
  4 28  1  0
  5 11  1  0
  5 21  1  0
  6 12  1  0
  6 16  2  0
  6 17  1  0
  6 27  1  0
  7 21  2  0
  7 24  1  0
  8 24  1  0
  9 10  2  0
  9 19  1  0
  9 22  1  0
 11 18  1  0
 12 18  1  0
 13 19  2  0
 13 20  1  0
 14 23  1  0
 14 26  2  0
 15 26  1  0
 18 32  1  0
 19 28  1  0
 20 31  2  0
 21 26  1  0
 23 24  2  0
 25 32  2  0
 28 29  2  0
 29 31  1  0
 30 32  1  0
M  END
>  <ID>  (1) 
conformer_0

$$$$
