
     RDKit          3D

 16 15  0  0  0  0  0  0  0  0999 V2000
   -0.3852  107.8113   22.6014 C   0  0  0  0  0  0  0  0  0  0  0  0
    2.5124  105.9041   23.8866 C   0  0  0  0  0  0  0  0  0  0  0  0
    1.1586  106.4982   24.1009 C   0  0  0  0  0  0  0  0  0  0  0  0
    7.3608  110.2775   25.6409 O   0  0  0  0  0  0  0  0  0  0  0  0
    3.6824  106.6118   24.4854 C   0  0  0  0  0  0  0  0  0  0  0  0
    7.6270  109.5475   23.5171 O   0  0  0  0  0  0  0  0  0  0  0  0
   -2.0136  108.7398   18.6610 C   0  0  0  0  0  0  0  0  0  0  0  0
   -2.4566  109.4692   19.9542 C   0  0  0  0  0  0  0  0  0  0  0  0
    3.4916  108.0807   24.6476 C   0  0  0  0  0  0  0  0  0  0  0  0
    0.2926  106.4736   22.8355 C   0  0  0  0  0  0  0  0  0  0  0  0
   -1.0101  107.8441   21.2081 C   0  0  0  0  0  0  0  0  0  0  0  0
    4.6908  108.9271   24.3682 C   0  0  0  0  0  0  0  0  0  0  0  0
    6.0182  108.4089   24.9343 C   0  0  0  0  0  0  0  0  0  0  0  0
    7.1047  109.4734   24.6954 C   0  0  0  0  0  0  0  0  0  0  0  0
    2.8589  105.1024   22.7261 N   0  0  0  0  0  0  0  0  0  0  0  0
   -1.3348  109.2752   20.9220 C   0  0  0  0  0  0  0  0  0  0  0  0
  1 10  1  0
  1 11  1  0
  2  3  1  0
  2  5  1  0
  2 15  1  0
  3 10  1  0
  4 14  2  0
  5  9  1  0
  6 14  1  0
  7  8  1  0
  8 16  1  0
  9 12  1  0
 11 16  1  0
 12 13  1  0
 13 14  1  0
M  END
>  <ID>  (1) 
conformer_0

$$$$
