
     RDKit          3D

 28 30  0  0  0  0  0  0  0  0999 V2000
   -0.2630  104.5915   26.0817 O   0  0  0  0  0  0  0  0  0  0  0  0
    5.0540  108.1887   25.3517 C   0  0  0  0  0  0  0  0  0  0  0  0
   -0.9630  107.4678   23.1316 C   0  0  0  0  0  0  0  0  0  0  0  0
   -2.4945  108.3069   21.8241 C   0  0  0  0  0  0  0  0  0  0  0  0
   -2.7346  108.9915   19.1716 C   0  0  0  0  0  0  0  0  0  0  0  0
    6.0869  109.1787   25.3077 N   0  0  0  0  0  0  0  0  0  0  0  0
    2.7975  106.4899   25.3096 C   0  0  0  0  0  0  0  0  0  0  0  0
    0.9765  104.8234   26.0634 C   0  0  0  0  0  0  0  0  0  0  0  0
    1.4828  105.8399   25.2177 C   0  0  0  0  0  0  0  0  0  0  0  0
    3.2467  107.1628   24.1490 C   0  0  0  0  0  0  0  0  0  0  0  0
    2.7251  106.9790   22.9407 O   0  0  0  0  0  0  0  0  0  0  0  0
    5.8824  110.0161   24.1267 C   0  0  0  0  0  0  0  0  0  0  0  0
   -0.3643  107.4285   21.7393 C   0  0  0  0  0  0  0  0  0  0  0  0
   -1.6114  108.3123   19.5726 C   0  0  0  0  0  0  0  0  0  0  0  0
   -0.6078  107.9556   18.6469 C   0  0  0  0  0  0  0  0  0  0  0  0
    8.3851  109.1793   24.7587 O   0  0  0  0  0  0  0  0  0  0  0  0
   -0.6868  106.7014   24.4350 C   0  0  0  0  0  0  0  0  0  0  0  0
   -1.4475  107.9927   20.9594 C   0  0  0  0  0  0  0  0  0  0  0  0
    3.6200  106.6321   26.4043 C   0  0  0  0  0  0  0  0  0  0  0  0
    7.5017  109.4310   25.6134 C   0  0  0  0  0  0  0  0  0  0  0  0
    4.7193  107.4544   26.4693 N   0  0  0  0  0  0  0  0  0  0  0  0
    4.3204  108.0139   24.2193 C   0  0  0  0  0  0  0  0  0  0  0  0
   -3.6309  108.9587   21.4197 C   0  0  0  0  0  0  0  0  0  0  0  0
   -2.2415  107.8987   23.0637 O   0  0  0  0  0  0  0  0  0  0  0  0
    1.8251  104.1292   26.7918 O   0  0  0  0  0  0  0  0  0  0  0  0
    0.6918  106.7480   24.5644 N   0  0  0  0  0  0  0  0  0  0  0  0
   -3.7493  109.3165   20.0658 C   0  0  0  0  0  0  0  0  0  0  0  0
    7.7354  110.2438   26.6383 N   0  0  0  0  0  0  0  0  0  0  0  0
  1  8  2  0
  2  6  1  0
  2 21  2  0
  2 22  1  0
  3 13  1  0
  3 17  1  0
  3 24  1  0
  4 18  1  0
  4 23  2  0
  4 24  1  0
  5 14  2  0
  5 27  1  0
  6 12  1  0
  6 20  1  0
  7  9  1  0
  7 10  1  0
  7 19  2  0
  8  9  1  0
  8 25  1  0
  9 26  2  3
 10 11  1  0
 10 22  2  0
 13 18  1  0
 14 15  1  0
 14 18  1  0
 16 20  2  0
 17 26  1  0
 19 21  1  0
 20 28  1  0
 23 27  1  0
M  END
>  <ID>  (1) 
conformer_0

$$$$
