
     RDKit          3D

 23 25  0  0  0  0  0  0  0  0999 V2000
    5.9811  110.5577   23.8026 O   0  0  0  0  0  0  0  0  0  0  0  0
    2.9581  105.8185   26.0645 C   0  0  0  0  0  0  0  0  0  0  0  0
   -0.3902  106.5128   23.5724 C   0  0  0  0  0  0  0  0  0  0  0  0
    2.0503  106.8405   24.2109 C   0  0  0  0  0  0  0  0  0  0  0  0
   -2.7469  109.4329   19.7768 C   0  0  0  0  0  0  0  0  0  0  0  0
    5.1337  107.4564   25.7323 C   0  0  0  0  0  0  0  0  0  0  0  0
    6.0028  109.6776   24.7578 C   0  0  0  0  0  0  0  0  0  0  0  0
    0.2579  107.4031   22.6235 C   0  0  0  0  0  0  0  0  0  0  0  0
   -2.0833  108.7924   18.7457 C   0  0  0  0  0  0  0  0  0  0  0  0
    5.1049  108.4975   24.7839 C   0  0  0  0  0  0  0  0  0  0  0  0
   -0.4554  108.5856   22.5082 O   0  0  0  0  0  0  0  0  0  0  0  0
   -2.2586  109.2729   21.0916 C   0  0  0  0  0  0  0  0  0  0  0  0
    2.9911  107.5048   23.9645 C   0  0  0  0  0  0  0  0  0  0  0  0
   -0.4588  107.8562   20.2481 C   0  0  0  0  0  0  0  0  0  0  0  0
   -1.0038  107.9987   18.9608 C   0  0  0  0  0  0  0  0  0  0  0  0
    0.8105  106.1675   24.4456 C   0  0  0  0  0  0  0  0  0  0  0  0
   -1.0896  108.5684   21.2544 C   0  0  0  0  0  0  0  0  0  0  0  0
    4.0832  108.3951   23.8292 C   0  0  0  0  0  0  0  0  0  0  0  0
    0.6511  105.2904   25.5163 C   0  0  0  0  0  0  0  0  0  0  0  0
    4.0525  106.5027   25.8755 C   0  0  0  0  0  0  0  0  0  0  0  0
    6.8250  109.9415   25.7415 N   0  0  0  0  0  0  0  0  0  0  0  0
    3.0170  106.6574   25.0432 C   0  0  0  0  0  0  0  0  0  0  0  0
    1.7524  105.1253   26.3501 C   0  0  0  0  0  0  0  0  0  0  0  0
  1  7  2  0
  2 20  2  0
  2 22  1  0
  2 23  1  0
  3  8  1  0
  3 16  1  0
  4 13  2  0
  4 16  1  0
  4 22  1  0
  5  9  1  0
  5 12  1  0
  6 10  1  0
  6 20  2  0
  7 10  1  0
  7 21  1  0
  8 11  1  0
  9 15  2  0
 10 18  1  0
 11 17  1  0
 12 17  2  0
 13 18  2  0
 14 15  1  0
 14 17  1  0
 16 19  1  0
 19 23  2  0
M  END
>  <ID>  (1) 
conformer_0

$$$$
