
     RDKit          3D

 27 29  0  0  0  0  0  0  0  0999 V2000
   -0.3347  106.8692   22.8260 C   0  0  0  0  0  0  0  0  0  0  0  0
    6.5988  110.4222   23.6216 N   0  0  0  0  0  0  0  0  0  0  0  0
    6.6375  109.8803   25.7111 N   0  0  0  0  0  0  0  0  0  0  0  0
   -0.8735  107.5334   21.6730 C   0  0  0  0  0  0  0  0  0  0  0  0
    3.4045  106.4909   25.6047 C   0  0  0  0  0  0  0  0  0  0  0  0
    4.3446  108.4212   23.8563 C   0  0  0  0  0  0  0  0  0  0  0  0
    4.9549  108.2604   25.1021 C   0  0  0  0  0  0  0  0  0  0  0  0
    4.4990  107.2275   25.9759 C   0  0  0  0  0  0  0  0  0  0  0  0
   -0.6219  107.9935   18.1606 O   0  0  0  0  0  0  0  0  0  0  0  0
   -1.2612  108.2866   19.3386 C   0  0  0  0  0  0  0  0  0  0  0  0
    0.7608  105.3029   24.8677 C   0  0  0  0  0  0  0  0  0  0  0  0
    1.4963  106.2149   24.1197 C   0  0  0  0  0  0  0  0  0  0  0  0
   -1.9100  108.1937   21.7795 C   0  0  0  0  0  0  0  0  0  0  0  0
   -2.9170  108.9042   21.5647 C   0  0  0  0  0  0  0  0  0  0  0  0
    2.2536  103.4128   25.1443 O   0  0  0  0  0  0  0  0  0  0  0  0
   -0.7008  107.7411   20.4584 C   0  0  0  0  0  0  0  0  0  0  0  0
    2.7639  106.7708   24.4340 C   0  0  0  0  0  0  0  0  0  0  0  0
    6.4536  109.9570   24.6009 C   0  0  0  0  0  0  0  0  0  0  0  0
    6.0088  109.1202   25.4877 C   0  0  0  0  0  0  0  0  0  0  0  0
    3.2710  107.7198   23.4981 C   0  0  0  0  0  0  0  0  0  0  0  0
    0.9501  106.7484   22.9900 N   0  0  0  0  0  0  0  0  0  0  0  0
   -2.4028  109.0914   19.1948 C   0  0  0  0  0  0  0  0  0  0  0  0
   -1.1812  106.3247   23.7850 C   0  0  0  0  0  0  0  0  0  0  0  0
   -3.2769  109.3922   20.2448 C   0  0  0  0  0  0  0  0  0  0  0  0
   -0.6608  105.4987   24.7980 C   0  0  0  0  0  0  0  0  0  0  0  0
    0.9115  103.8954   26.8143 O   0  0  0  0  0  0  0  0  0  0  0  0
    1.2891  104.1270   25.6411 C   0  0  0  0  0  0  0  0  0  0  0  0
  1  4  1  0
  1 21  2  0
  1 23  1  0
  2 18  2  0
  3 18  1  0
  3 19  1  0
  4 13  2  0
  4 16  1  0
  5  8  2  0
  5 17  1  0
  6  7  1  0
  6 20  2  0
  7  8  1  0
  7 19  1  0
  9 10  1  0
 10 16  2  0
 10 22  1  0
 11 12  1  0
 11 25  2  0
 11 27  1  0
 12 17  2  3
 12 21  1  0
 13 14  2  0
 14 24  1  0
 15 27  2  0
 17 20  1  0
 22 24  2  0
 23 25  1  0
 26 27  1  0
M  END
>  <ID>  (1) 
conformer_0

$$$$
