
     RDKit          3D

 29 31  0  0  0  0  0  0  0  0999 V2000
    1.0697  106.3228   23.2871 C   0  0  0  0  0  0  0  0  0  0  0  0
    6.8717  107.8998   26.6244 C   0  0  0  0  0  0  0  0  0  0  0  0
    2.9691  104.9801   26.6128 N   0  0  0  0  0  0  0  0  0  0  0  0
   -3.2501  109.2434   20.5638 C   0  0  0  0  0  0  0  0  0  0  0  0
    8.0792  107.3579   27.0165 O   0  0  0  0  0  0  0  0  0  0  0  0
    7.7578  109.8721   23.6189 O   0  0  0  0  0  0  0  0  0  0  0  0
    2.0433  106.7833   22.5666 O   0  0  0  0  0  0  0  0  0  0  0  0
    5.2663  108.9041   25.0657 C   0  0  0  0  0  0  0  0  0  0  0  0
   -2.8207  108.7176   23.4707 O   0  0  0  0  0  0  0  0  0  0  0  0
    7.8388  109.2722   24.7973 C   0  0  0  0  0  0  0  0  0  0  0  0
    4.1475  108.1853   25.4434 N   0  0  0  0  0  0  0  0  0  0  0  0
    9.0694  109.2551   25.2295 O   0  0  0  0  0  0  0  0  0  0  0  0
   -0.0504  107.0413   23.7237 N   0  0  0  0  0  0  0  0  0  0  0  0
    5.0836  109.5167   23.5901 C   0  0  0  0  0  0  0  0  0  0  0  0
    3.2087  105.8912   25.5632 C   0  0  0  0  0  0  0  0  0  0  0  0
    6.6657  108.6742   25.4200 N   0  0  0  0  0  0  0  0  0  0  0  0
    4.1176  106.9621   25.9350 C   0  0  0  0  0  0  0  0  0  0  0  0
   -2.0351  108.3488   22.5782 C   0  0  0  0  0  0  0  0  0  0  0  0
   -1.0865  108.1482   19.1386 C   0  0  0  0  0  0  0  0  0  0  0  0
    2.8489  105.2266   24.3676 N   0  0  0  0  0  0  0  0  0  0  0  0
   -2.1304  108.8275   18.4861 C   0  0  0  0  0  0  0  0  0  0  0  0
    1.3637  105.0841   24.0340 C   0  0  0  0  0  0  0  0  0  0  0  0
   -0.8206  107.6028   22.7196 N   0  0  0  0  0  0  0  0  0  0  0  0
    4.7840  106.8092   27.1654 C   0  0  0  0  0  0  0  0  0  0  0  0
   -3.2107  109.3742   19.1846 C   0  0  0  0  0  0  0  0  0  0  0  0
   -0.2746  107.4184   21.3969 O   0  0  0  0  0  0  0  0  0  0  0  0
    5.7675  107.7911   27.5379 C   0  0  0  0  0  0  0  0  0  0  0  0
   -1.1229  108.0097   20.5223 C   0  0  0  0  0  0  0  0  0  0  0  0
   -2.2286  108.5989   21.1955 C   0  0  0  0  0  0  0  0  0  0  0  0
  1  7  2  0
  1 13  1  0
  1 22  1  0
  2  5  2  0
  2 16  1  0
  2 27  1  0
  3 15  2  0
  4 25  2  0
  4 29  1  0
  6 10  2  0
  8 11  2  0
  8 14  1  0
  8 16  1  0
  9 18  2  0
 10 12  1  0
 10 16  1  0
 11 17  1  0
 13 23  1  0
 15 17  1  0
 15 20  1  0
 17 24  1  0
 18 23  1  0
 18 29  1  0
 19 21  2  0
 19 28  1  0
 20 22  1  0
 21 25  1  0
 23 26  1  0
 24 27  1  0
 26 28  1  0
 28 29  2  0
M  END
>  <ID>  (1) 
conformer_0

$$$$
