
     RDKit          3D

 24 27  0  0  0  0  0  0  0  0999 V2000
   -1.4742  108.5297   20.7412 C   0  0  0  0  0  0  0  0  0  0  0  0
    3.5652  106.8346   25.1666 C   0  0  0  0  0  0  0  0  0  0  0  0
   -2.2454  108.8981   19.5729 C   0  0  0  0  0  0  0  0  0  0  0  0
    4.6052  107.8320   25.1653 C   0  0  0  0  0  0  0  0  0  0  0  0
    6.3549  108.9417   26.3403 C   0  0  0  0  0  0  0  0  0  0  0  0
    0.7108  108.6277   21.8988 N   0  0  0  0  0  0  0  0  0  0  0  0
    2.9115  106.5690   23.9027 C   0  0  0  0  0  0  0  0  0  0  0  0
    1.7888  107.4117   23.8189 N   0  0  0  0  0  0  0  0  0  0  0  0
    2.4712  105.2776   23.7332 N   0  0  0  0  0  0  0  0  0  0  0  0
    0.9683  105.2901   23.8540 C   0  0  0  0  0  0  0  0  0  0  0  0
   -1.4429  108.3751   23.1198 C   0  0  0  0  0  0  0  0  0  0  0  0
   -0.2468  107.7999   23.0363 N   0  0  0  0  0  0  0  0  0  0  0  0
   -0.1969  108.5109   18.3499 C   0  0  0  0  0  0  0  0  0  0  0  0
    0.5616  106.7723   23.7131 C   0  0  0  0  0  0  0  0  0  0  0  0
   -1.5659  108.6410   18.3623 C   0  0  0  0  0  0  0  0  0  0  0  0
    6.6280  109.6267   25.1558 C   0  0  0  0  0  0  0  0  0  0  0  0
    4.7915  108.5895   24.0104 C   0  0  0  0  0  0  0  0  0  0  0  0
    2.0468  109.2482   19.3907 C   0  0  0  0  0  0  0  0  0  0  0  0
    5.8403  109.4653   24.0277 C   0  0  0  0  0  0  0  0  0  0  0  0
    0.4970  108.7685   19.4536 C   0  0  0  0  0  0  0  0  0  0  0  0
    5.3300  108.0330   26.3147 C   0  0  0  0  0  0  0  0  0  0  0  0
   -1.9400  108.7497   24.2165 O   0  0  0  0  0  0  0  0  0  0  0  0
   -0.0883  108.6631   20.8134 C   0  0  0  0  0  0  0  0  0  0  0  0
   -2.1891  108.5505   21.9382 C   0  0  0  0  0  0  0  0  0  0  0  0
  1  3  1  0
  1 23  1  0
  1 24  1  0
  2  4  2  3
  2  7  1  0
  3 15  1  0
  4 17  1  0
  4 21  1  0
  5 16  1  0
  5 21  2  0
  6 12  1  0
  6 23  1  0
  7  8  1  0
  7  9  1  0
  8 14  2  0
  9 10  1  0
 10 14  1  0
 11 12  1  0
 11 22  2  0
 11 24  1  0
 12 14  1  0
 13 15  2  0
 13 20  1  0
 16 19  1  0
 17 19  2  0
 18 20  1  0
 20 23  1  0
M  END
>  <ID>  (1) 
conformer_0

$$$$
