
     RDKit          3D

 22 24  0  0  0  0  0  0  0  0999 V2000
   -2.4269  108.8529   21.7723 C   0  0  0  0  0  0  0  0  0  0  0  0
    2.1555  105.8958   23.8835 C   0  0  0  0  0  0  0  0  0  0  0  0
    1.2600  108.0465   22.2215 N   0  0  0  0  0  0  0  0  0  0  0  0
    6.9606  110.0030   25.4401 O   0  0  0  0  0  0  0  0  0  0  0  0
   -1.3080  108.3407   19.2870 C   0  0  0  0  0  0  0  0  0  0  0  0
    4.1883  106.3066   26.8567 C   0  0  0  0  0  0  0  0  0  0  0  0
   -2.2818  109.2917   19.4246 C   0  0  0  0  0  0  0  0  0  0  0  0
    5.9570  109.1563   25.2945 C   0  0  0  0  0  0  0  0  0  0  0  0
    2.5211  105.2166   22.8895 O   0  0  0  0  0  0  0  0  0  0  0  0
    0.4520  107.1667   22.8193 C   0  0  0  0  0  0  0  0  0  0  0  0
    4.6953  107.3330   26.0132 C   0  0  0  0  0  0  0  0  0  0  0  0
   -2.8703  109.5388   20.6587 C   0  0  0  0  0  0  0  0  0  0  0  0
   -1.4153  107.9071   21.6196 C   0  0  0  0  0  0  0  0  0  0  0  0
    4.1764  108.3164   23.8890 C   0  0  0  0  0  0  0  0  0  0  0  0
    3.9393  107.3155   24.8113 C   0  0  0  0  0  0  0  0  0  0  0  0
    0.9493  106.5070   23.9379 N   0  0  0  0  0  0  0  0  0  0  0  0
   -0.9981  107.2118   22.8375 C   0  0  0  0  0  0  0  0  0  0  0  0
    3.0405  106.2643   24.8989 C   0  0  0  0  0  0  0  0  0  0  0  0
    3.1686  105.6708   26.1512 C   0  0  0  0  0  0  0  0  0  0  0  0
    5.7175  108.2170   26.2576 C   0  0  0  0  0  0  0  0  0  0  0  0
   -0.8454  107.6364   20.3894 C   0  0  0  0  0  0  0  0  0  0  0  0
    5.1917  109.2394   24.0986 C   0  0  0  0  0  0  0  0  0  0  0  0
  1 12  2  0
  1 13  1  0
  2  9  2  0
  2 16  1  0
  2 18  1  0
  3 10  2  0
  4  8  1  0
  5  7  2  0
  5 21  1  0
  6 11  1  0
  6 19  1  0
  7 12  1  0
  8 20  2  0
  8 22  1  0
 10 16  1  0
 10 17  1  0
 11 15  2  0
 11 20  1  0
 13 17  1  0
 13 21  2  0
 14 15  1  0
 14 22  2  0
 15 18  1  0
 18 19  1  0
M  END
>  <ID>  (1) 
conformer_0

$$$$
