
     RDKit          3D

 25 29  0  0  0  0  0  0  0  0999 V2000
   -1.4853  107.0679   23.3347 C   0  0  0  0  0  0  0  0  0  0  0  0
    9.1118  108.9545   25.4693 N   0  0  0  0  0  0  0  0  0  0  0  0
   -0.3699  106.9108   22.5002 C   0  0  0  0  0  0  0  0  0  0  0  0
   -2.6105  109.1820   19.5690 C   0  0  0  0  0  0  0  0  0  0  0  0
    1.9565  106.4259   24.4117 N   0  0  0  0  0  0  0  0  0  0  0  0
    6.4480  108.4640   26.1496 C   0  0  0  0  0  0  0  0  0  0  0  0
   -2.4616  107.7853   22.8823 N   0  0  0  0  0  0  0  0  0  0  0  0
    1.3266  105.9673   25.6516 C   0  0  0  0  0  0  0  0  0  0  0  0
    7.3539  109.0293   27.1783 C   0  0  0  0  0  0  0  0  0  0  0  0
    8.6072  109.5798   26.6808 C   0  0  0  0  0  0  0  0  0  0  0  0
   -2.9825  108.9197   20.8767 C   0  0  0  0  0  0  0  0  0  0  0  0
    4.2114  107.3243   24.8158 C   0  0  0  0  0  0  0  0  0  0  0  0
    0.0267  105.8832   24.8422 C   0  0  0  0  0  0  0  0  0  0  0  0
    5.2353  108.0765   26.7878 C   0  0  0  0  0  0  0  0  0  0  0  0
    5.3309  107.7257   24.1334 N   0  0  0  0  0  0  0  0  0  0  0  0
   -0.9130  107.5967   21.2233 C   0  0  0  0  0  0  0  0  0  0  0  0
    6.3659  108.4140   24.7146 C   0  0  0  0  0  0  0  0  0  0  0  0
   -1.4373  108.6067   19.0942 C   0  0  0  0  0  0  0  0  0  0  0  0
    4.1154  107.6372   26.1348 C   0  0  0  0  0  0  0  0  0  0  0  0
    3.2995  106.8494   22.6814 O   0  0  0  0  0  0  0  0  0  0  0  0
    0.8002  106.2836   23.4822 C   0  0  0  0  0  0  0  0  0  0  0  0
   -0.6011  107.8329   19.8958 C   0  0  0  0  0  0  0  0  0  0  0  0
   -1.4044  106.4242   24.7005 C   0  0  0  0  0  0  0  0  0  0  0  0
    3.1815  106.7068   23.9388 C   0  0  0  0  0  0  0  0  0  0  0  0
   -2.1488  108.1215   21.6532 C   0  0  0  0  0  0  0  0  0  0  0  0
  1  3  2  0
  1  7  1  0
  1 23  1  0
  2 10  1  0
  3 16  1  0
  3 21  1  0
  4 11  2  0
  4 18  1  0
  5  8  1  0
  5 21  1  0
  5 24  1  0
  6  9  2  3
  6 14  1  0
  6 17  1  0
  7 25  1  0
  8 13  1  0
  9 10  1  0
 11 25  1  0
 12 15  2  0
 12 19  1  0
 12 24  1  0
 13 21  1  0
 13 23  1  0
 14 19  2  0
 15 17  1  0
 16 22  1  0
 16 25  2  0
 18 22  2  0
 20 24  2  0
M  END
>  <ID>  (1) 
conformer_0

$$$$
