
     RDKit          3D

 24 26  0  0  0  0  0  0  0  0999 V2000
   -1.2832  108.2193   21.0759 C   0  0  0  0  0  0  0  0  0  0  0  0
    3.2433  107.2795   24.3734 C   0  0  0  0  0  0  0  0  0  0  0  0
    1.9715  103.9149   25.2360 C   0  0  0  0  0  0  0  0  0  0  0  0
    0.5344  107.2277   21.9570 C   0  0  0  0  0  0  0  0  0  0  0  0
    3.1387  106.0450   24.9477 C   0  0  0  0  0  0  0  0  0  0  0  0
    6.8601  108.5875   25.7391 C   0  0  0  0  0  0  0  0  0  0  0  0
   -1.6260  108.1743   23.3248 C   0  0  0  0  0  0  0  0  0  0  0  0
    4.2224  108.1193   24.7419 N   0  0  0  0  0  0  0  0  0  0  0  0
    1.3439  106.8629   23.0806 C   0  0  0  0  0  0  0  0  0  0  0  0
    7.5882  109.4799   26.5192 N   0  0  0  0  0  0  0  0  0  0  0  0
    4.7621  109.2689   24.5618 C   0  0  0  0  0  0  0  0  0  0  0  0
    2.0827  105.2280   24.6154 C   0  0  0  0  0  0  0  0  0  0  0  0
    7.2595  109.3935   23.5227 O   0  0  0  0  0  0  0  0  0  0  0  0
   -0.7096  108.0730   19.8593 C   0  0  0  0  0  0  0  0  0  0  0  0
   -2.7969  108.6867   22.6972 N   0  0  0  0  0  0  0  0  0  0  0  0
   -3.3621  109.0995   20.2751 C   0  0  0  0  0  0  0  0  0  0  0  0
    6.2747  109.3697   24.5127 C   0  0  0  0  0  0  0  0  0  0  0  0
    6.4817  107.2644   25.6875 N   0  0  0  0  0  0  0  0  0  0  0  0
   -0.6794  107.9094   22.3182 N   0  0  0  0  0  0  0  0  0  0  0  0
    1.1409  105.6450   23.6732 C   0  0  0  0  0  0  0  0  0  0  0  0
   -2.7932  108.9755   18.9955 C   0  0  0  0  0  0  0  0  0  0  0  0
   -1.5395  108.4753   18.7918 C   0  0  0  0  0  0  0  0  0  0  0  0
   -2.5487  108.6989   21.3070 C   0  0  0  0  0  0  0  0  0  0  0  0
    2.3599  107.7260   23.4447 C   0  0  0  0  0  0  0  0  0  0  0  0
  1 14  1  0
  1 19  1  0
  1 23  2  0
  2  5  1  0
  2  8  2  3
  2 24  1  0
  3 12  1  0
  4  9  1  0
  4 19  1  0
  5 12  2  0
  6 10  2  0
  6 17  1  0
  6 18  1  0
  7 15  1  0
  7 19  1  0
  8 11  1  0
  9 20  1  0
  9 24  2  0
 11 17  1  0
 12 20  1  0
 13 17  1  0
 14 22  1  0
 15 23  1  0
 16 21  1  0
 16 23  1  0
 21 22  2  0
M  END
>  <ID>  (1) 
conformer_0

$$$$
