
     RDKit          3D

 31 34  0  0  0  0  0  0  0  0999 V2000
   -1.1496  108.5996   19.7993 C   0  0  0  0  0  0  0  0  0  0  0  0
   -3.4593  109.1406   19.3663 C   0  0  0  0  0  0  0  0  0  0  0  0
    1.0310  106.8379   23.2402 C   0  0  0  0  0  0  0  0  0  0  0  0
    1.4071  103.6897   26.1169 C   0  0  0  0  0  0  0  0  0  0  0  0
   -0.2620  107.7975   21.6733 C   0  0  0  0  0  0  0  0  0  0  0  0
    2.4777  104.7921   23.4431 C   0  0  0  0  0  0  0  0  0  0  0  0
   -1.4489  108.2156   21.0414 C   0  0  0  0  0  0  0  0  0  0  0  0
    6.4085  107.3851   27.8693 C   0  0  0  0  0  0  0  0  0  0  0  0
    4.6318  105.7910   27.9321 C   0  0  0  0  0  0  0  0  0  0  0  0
    5.7419  106.3753   28.5143 C   0  0  0  0  0  0  0  0  0  0  0  0
    3.0177  105.7306   26.0981 C   0  0  0  0  0  0  0  0  0  0  0  0
    1.7579  107.8567   23.3200 O   0  0  0  0  0  0  0  0  0  0  0  0
    1.3546  102.6063   26.8284 O   0  0  0  0  0  0  0  0  0  0  0  0
    6.8483  110.1798   24.0305 O   0  0  0  0  0  0  0  0  0  0  0  0
    0.1185  104.5239   25.9986 C   0  0  0  0  0  0  0  0  0  0  0  0
    5.9877  107.8275   26.6236 C   0  0  0  0  0  0  0  0  0  0  0  0
   -2.7262  108.3377   21.5381 C   0  0  0  0  0  0  0  0  0  0  0  0
    0.4914  105.8307   25.3416 C   0  0  0  0  0  0  0  0  0  0  0  0
    4.1677  106.2395   26.7003 C   0  0  0  0  0  0  0  0  0  0  0  0
    4.4112  107.7512   24.8081 C   0  0  0  0  0  0  0  0  0  0  0  0
    6.1842  109.2706   24.7406 C   0  0  0  0  0  0  0  0  0  0  0  0
    1.2318  105.5780   24.0471 C   0  0  0  0  0  0  0  0  0  0  0  0
    0.8474  108.0403   20.8057 C   0  0  0  0  0  0  0  0  0  0  0  0
   -3.7808  108.8188   20.6787 C   0  0  0  0  0  0  0  0  0  0  0  0
    6.6650  108.8342   25.9455 C   0  0  0  0  0  0  0  0  0  0  0  0
    2.5703  104.4653   26.1909 N   0  0  0  0  0  0  0  0  0  0  0  0
    5.0172  108.7514   24.1658 C   0  0  0  0  0  0  0  0  0  0  0  0
   -0.3565  106.9576   22.7792 C   0  0  0  0  0  0  0  0  0  0  0  0
    0.2890  108.4913   19.6668 N   0  0  0  0  0  0  0  0  0  0  0  0
    4.8405  107.2452   26.0058 C   0  0  0  0  0  0  0  0  0  0  0  0
   -2.1107  109.0247   18.9290 C   0  0  0  0  0  0  0  0  0  0  0  0
  1  7  1  0
  1 29  1  0
  1 31  2  0
  2 24  2  0
  2 31  1  0
  3 12  2  0
  3 22  1  0
  3 28  1  0
  4 13  2  0
  4 15  1  0
  4 26  1  0
  5  7  1  0
  5 23  1  0
  5 28  1  0
  6 22  1  0
  7 17  2  0
  8 10  2  0
  8 16  1  0
  9 10  1  0
  9 19  1  0
 11 19  1  0
 11 26  1  0
 14 21  1  0
 15 18  1  0
 16 25  1  0
 16 30  1  0
 17 24  1  0
 18 22  1  0
 19 30  2  0
 20 27  2  0
 20 30  1  0
 21 25  2  0
 21 27  1  0
 23 29  1  0
M  END
>  <ID>  (1) 
conformer_0

$$$$
