
     RDKit          3D

 31 34  0  0  0  0  0  0  0  0999 V2000
    6.1192  109.7344   24.4712 S   0  0  0  0  0  0  0  0  0  0  0  0
   -3.3297  109.2902   20.6175 C   0  0  0  0  0  0  0  0  0  0  0  0
    5.1337  106.8132   26.3065 C   0  0  0  0  0  0  0  0  0  0  0  0
    4.2792  103.9592   29.0667 C   0  0  0  0  0  0  0  0  0  0  0  0
    2.1353  103.7356   27.3495 C   0  0  0  0  0  0  0  0  0  0  0  0
    8.0524  109.1367   25.9194 C   0  0  0  0  0  0  0  0  0  0  0  0
   -0.7380  108.1195   19.6103 C   0  0  0  0  0  0  0  0  0  0  0  0
   -3.7406  109.6360   18.3307 F   0  0  0  0  0  0  0  0  0  0  0  0
    7.4657  109.8471   24.8757 N   0  0  0  0  0  0  0  0  0  0  0  0
    1.1179  106.9131   23.5792 C   0  0  0  0  0  0  0  0  0  0  0  0
    2.2012  102.9286   28.4475 C   0  0  0  0  0  0  0  0  0  0  0  0
   -1.1884  107.8791   23.3333 C   0  0  0  0  0  0  0  0  0  0  0  0
    2.2707  104.5532   26.3559 N   0  0  0  0  0  0  0  0  0  0  0  0
   -0.2613  106.7866   23.4780 N   0  0  0  0  0  0  0  0  0  0  0  0
    3.1136  104.6388   27.0582 C   0  0  0  0  0  0  0  0  0  0  0  0
   -2.9140  109.2066   19.2957 C   0  0  0  0  0  0  0  0  0  0  0  0
    3.2934  103.0143   29.3486 C   0  0  0  0  0  0  0  0  0  0  0  0
    4.0105  106.6622   25.3603 C   0  0  0  0  0  0  0  0  0  0  0  0
    1.6845  107.9003   23.2671 O   0  0  0  0  0  0  0  0  0  0  0  0
    1.7528  105.8016   24.0796 N   0  0  0  0  0  0  0  0  0  0  0  0
    3.0119  105.8560   24.6000 N   0  0  0  0  0  0  0  0  0  0  0  0
   -1.4826  108.1980   21.9193 C   0  0  0  0  0  0  0  0  0  0  0  0
    5.4629  108.4965   24.7853 C   0  0  0  0  0  0  0  0  0  0  0  0
    7.3193  107.9951   26.4263 C   0  0  0  0  0  0  0  0  0  0  0  0
    5.9801  107.8764   25.9739 C   0  0  0  0  0  0  0  0  0  0  0  0
    4.1621  104.7169   27.9501 C   0  0  0  0  0  0  0  0  0  0  0  0
    3.1511  105.4749   25.8315 C   0  0  0  0  0  0  0  0  0  0  0  0
   -2.6429  108.8698   21.6854 C   0  0  0  0  0  0  0  0  0  0  0  0
   -0.5638  107.8496   20.9338 C   0  0  0  0  0  0  0  0  0  0  0  0
    4.2656  107.9011   24.4822 C   0  0  0  0  0  0  0  0  0  0  0  0
   -1.7288  108.6536   18.8860 C   0  0  0  0  0  0  0  0  0  0  0  0
  1  9  1  0
  1 23  1  0
  2 16  1  0
  2 28  2  0
  3 18  1  0
  3 25  1  0
  4 17  1  0
  4 26  2  0
  5 11  1  0
  5 13  1  0
  6  9  2  0
  6 24  1  0
  7 29  1  0
  7 31  2  0
  8 16  1  0
 10 14  1  0
 10 19  2  0
 10 20  1  0
 11 17  2  0
 12 14  1  0
 12 22  1  0
 13 15  1  0
 13 27  1  0
 15 26  1  0
 16 31  1  0
 18 27  1  0
 18 30  1  0
 20 21  1  0
 21 27  2  3
 22 28  1  0
 22 29  2  0
 23 25  1  0
 23 30  1  0
 24 25  1  0
M  END
>  <ID>  (1) 
conformer_0

$$$$
