
     RDKit          3D

 30 31  0  0  0  0  0  0  0  0999 V2000
    6.0354  107.8009   28.3217 N   0  0  0  0  0  0  0  0  0  0  0  0
    7.7279  109.4773   24.2468 C   0  0  0  0  0  0  0  0  0  0  0  0
   -3.1481  109.3780   20.1906 C   0  0  0  0  0  0  0  0  0  0  0  0
   -1.3106  108.2513   19.0721 C   0  0  0  0  0  0  0  0  0  0  0  0
    8.8728  109.1659   23.6893 O   0  0  0  0  0  0  0  0  0  0  0  0
   -1.5311  108.0098   21.4186 C   0  0  0  0  0  0  0  0  0  0  0  0
   -3.4569  109.1113   22.4882 O   0  0  0  0  0  0  0  0  0  0  0  0
    5.8004  109.0377   27.6476 C   0  0  0  0  0  0  0  0  0  0  0  0
    0.7040  106.1904   23.7376 C   0  0  0  0  0  0  0  0  0  0  0  0
    7.3049  108.6940   25.4909 C   0  0  0  0  0  0  0  0  0  0  0  0
    2.9299  106.4405   24.3181 C   0  0  0  0  0  0  0  0  0  0  0  0
    0.0564  106.4751   22.4551 C   0  0  0  0  0  0  0  0  0  0  0  0
    3.4024  106.1611   25.5882 C   0  0  0  0  0  0  0  0  0  0  0  0
    4.3748  106.9506   26.1757 C   0  0  0  0  0  0  0  0  0  0  0  0
    7.0727  110.3501   23.5594 O   0  0  0  0  0  0  0  0  0  0  0  0
    8.4255  108.1552   26.3180 C   0  0  0  0  0  0  0  0  0  0  0  0
   -0.8530  107.7089   20.2544 C   0  0  0  0  0  0  0  0  0  0  0  0
   -1.0307  107.5005   22.6915 C   0  0  0  0  0  0  0  0  0  0  0  0
   -1.7288  107.6997   23.8609 N   0  0  0  0  0  0  0  0  0  0  0  0
   -2.3881  109.0806   19.0529 C   0  0  0  0  0  0  0  0  0  0  0  0
    5.5180  110.3252   25.7113 O   0  0  0  0  0  0  0  0  0  0  0  0
    2.4650  104.5290   23.0782 C   0  0  0  0  0  0  0  0  0  0  0  0
    3.4443  107.5056   23.6231 C   0  0  0  0  0  0  0  0  0  0  0  0
    4.3885  108.2716   24.2265 C   0  0  0  0  0  0  0  0  0  0  0  0
    6.7367  107.9673   29.5251 C   0  0  0  0  0  0  0  0  0  0  0  0
    0.2904  106.4536   24.8682 O   0  0  0  0  0  0  0  0  0  0  0  0
   -2.7126  108.8364   21.4098 C   0  0  0  0  0  0  0  0  0  0  0  0
    1.9661  105.6761   23.6920 N   0  0  0  0  0  0  0  0  0  0  0  0
    4.8779  108.0318   25.4893 C   0  0  0  0  0  0  0  0  0  0  0  0
    5.8890  109.0258   26.0964 C   0  0  0  0  0  0  0  0  0  0  0  0
  1  8  1  0
  1 25  1  0
  2  5  2  0
  2 10  1  0
  2 15  1  0
  3 20  1  0
  3 27  2  0
  4 17  1  0
  4 20  2  0
  6 17  1  0
  6 18  2  3
  6 27  1  0
  7 27  1  0
  8 30  1  0
  9 12  1  0
  9 26  2  0
  9 28  1  0
 10 16  1  0
 10 30  1  0
 11 13  2  0
 11 23  1  0
 11 28  1  0
 12 18  1  0
 13 14  1  0
 14 29  2  0
 18 19  1  0
 21 30  1  0
 22 28  1  0
 23 24  2  0
 24 29  1  0
 29 30  1  0
M  END
>  <ID>  (1) 
conformer_0

$$$$
