
     RDKit          3D

 30 35  0  0  0  0  0  0  0  0999 V2000
   -3.1084  109.2582   20.4896 C   0  0  0  0  0  0  0  0  0  0  0  0
   -2.6416  109.2170   19.0629 C   0  0  0  0  0  0  0  0  0  0  0  0
    5.1132  107.3661   25.9974 C   0  0  0  0  0  0  0  0  0  0  0  0
    4.1266  106.3935   26.3593 C   0  0  0  0  0  0  0  0  0  0  0  0
    2.6484  107.4438   23.1825 N   0  0  0  0  0  0  0  0  0  0  0  0
    0.5861  104.2353   26.6853 C   0  0  0  0  0  0  0  0  0  0  0  0
   -0.2370  107.2983   21.2811 C   0  0  0  0  0  0  0  0  0  0  0  0
    2.2012  105.6824   25.7294 C   0  0  0  0  0  0  0  0  0  0  0  0
    3.1321  106.5601   25.2117 C   0  0  0  0  0  0  0  0  0  0  0  0
    1.4786  106.6656   23.3837 N   0  0  0  0  0  0  0  0  0  0  0  0
    5.6347  108.9955   24.1860 C   0  0  0  0  0  0  0  0  0  0  0  0
    2.6847  104.5658   27.7716 C   0  0  0  0  0  0  0  0  0  0  0  0
   -1.4334  108.3287   19.1008 C   0  0  0  0  0  0  0  0  0  0  0  0
    6.9599  109.3832   24.4733 C   0  0  0  0  0  0  0  0  0  0  0  0
    3.6067  107.4853   24.2761 C   0  0  0  0  0  0  0  0  0  0  0  0
    9.0462  108.2950   26.7858 C   0  0  0  0  0  0  0  0  0  0  0  0
    8.0042  109.3604   23.6710 O   0  0  0  0  0  0  0  0  0  0  0  0
   -0.6788  107.2833   22.6109 C   0  0  0  0  0  0  0  0  0  0  0  0
    0.0360  106.7367   23.7063 C   0  0  0  0  0  0  0  0  0  0  0  0
   -1.8961  108.0442   22.6416 C   0  0  0  0  0  0  0  0  0  0  0  0
    3.0557  105.4409   26.7850 C   0  0  0  0  0  0  0  0  0  0  0  0
    4.8210  108.0827   24.8574 C   0  0  0  0  0  0  0  0  0  0  0  0
   -1.1455  107.9288   20.4990 N   0  0  0  0  0  0  0  0  0  0  0  0
   -0.6078  103.6748   26.6243 O   0  0  0  0  0  0  0  0  0  0  0  0
    0.9865  105.0856   25.6818 C   0  0  0  0  0  0  0  0  0  0  0  0
    1.4432  103.9693   27.7267 C   0  0  0  0  0  0  0  0  0  0  0  0
    7.5352  108.2729   26.6193 C   0  0  0  0  0  0  0  0  0  0  0  0
    7.2313  109.5201   25.8781 N   0  0  0  0  0  0  0  0  0  0  0  0
    6.3213  107.4538   26.7650 C   0  0  0  0  0  0  0  0  0  0  0  0
   -2.1420  108.5187   21.3272 C   0  0  0  0  0  0  0  0  0  0  0  0
  1  2  1  0
  1 30  1  0
  2 13  1  0
  3  4  1  0
  3 22  2  0
  3 29  1  0
  4  9  1  0
  4 21  1  0
  5 10  1  0
  5 15  1  0
  6 24  1  0
  6 25  2  0
  6 26  1  0
  7 18  1  0
  7 23  1  0
  8  9  1  0
  8 21  2  0
  8 25  1  0
  9 15  2  0
 10 19  1  0
 11 14  1  0
 11 22  1  0
 12 21  1  0
 12 26  2  0
 13 23  1  0
 14 17  2  0
 14 28  1  0
 15 22  1  0
 16 27  1  0
 18 19  1  0
 18 20  1  0
 20 30  1  0
 23 30  1  0
 27 28  1  0
 27 29  1  0
M  END
>  <ID>  (1) 
conformer_0

$$$$
