
     RDKit          3D

 23 25  0  0  0  0  0  0  0  0999 V2000
    0.2574  107.3784   23.1426 C   0  0  0  0  0  0  0  0  0  0  0  0
    3.5446  107.4046   24.6857 C   0  0  0  0  0  0  0  0  0  0  0  0
    1.3652  107.0076   23.9847 C   0  0  0  0  0  0  0  0  0  0  0  0
   -2.3208  109.3312   19.3047 C   0  0  0  0  0  0  0  0  0  0  0  0
    2.2606  105.7386   25.7766 C   0  0  0  0  0  0  0  0  0  0  0  0
   -2.4861  109.4833   20.7534 C   0  0  0  0  0  0  0  0  0  0  0  0
    5.7857  107.9336   26.6530 C   0  0  0  0  0  0  0  0  0  0  0  0
    4.6537  108.2516   24.5304 O   0  0  0  0  0  0  0  0  0  0  0  0
    5.8730  108.1516   25.1311 C   0  0  0  0  0  0  0  0  0  0  0  0
   -1.3185  108.3334   18.7363 C   0  0  0  0  0  0  0  0  0  0  0  0
   -0.8556  107.9408   23.7340 C   0  0  0  0  0  0  0  0  0  0  0  0
   -0.3294  107.9231   19.6185 O   0  0  0  0  0  0  0  0  0  0  0  0
   -1.6124  108.6382   21.5858 C   0  0  0  0  0  0  0  0  0  0  0  0
    7.8426  109.2819   23.4952 O   0  0  0  0  0  1  0  0  0  0  0  0
    3.4231  106.4715   25.6637 C   0  0  0  0  0  0  0  0  0  0  0  0
    5.8934  110.8295   23.4759 O   0  0  0  0  0  0  0  0  0  0  0  0
    0.3511  107.2319   21.7686 C   0  0  0  0  0  0  0  0  0  0  0  0
    2.5520  107.6267   23.7670 C   0  0  0  0  0  0  0  0  0  0  0  0
    1.2566  105.9870   24.9068 C   0  0  0  0  0  0  0  0  0  0  0  0
   -1.7759  108.5842   22.9730 C   0  0  0  0  0  0  0  0  0  0  0  0
    6.7269  109.8153   24.3268 P   0  0  0  0  0  4  0  0  0  0  0  0
    7.1593  110.4801   25.6153 O   0  0  0  0  0  0  0  0  0  0  0  0
   -0.5584  107.9196   21.0163 C   0  0  0  0  0  0  0  0  0  0  0  0
  1  3  1  0
  1 11  1  0
  1 17  1  0
  2  8  1  0
  2 15  2  0
  2 18  1  0
  3 18  2  0
  3 19  1  0
  4  6  1  0
  4 10  1  0
  5 15  1  0
  5 19  2  0
  6 13  2  0
  7  9  1  0
  8  9  1  0
  9 21  1  0
 10 12  1  0
 11 20  2  0
 12 23  1  0
 13 20  1  0
 13 23  1  0
 14 21  2  0
 16 21  1  0
 17 23  2  0
 21 22  1  0
M  END
>  <ID>  (1) 
conformer_0

$$$$
