
     RDKit          3D

 42 47  0  0  0  0  0  0  0  0999 V2000
   -1.2979  104.8831   29.6160 C   0  0  0  0  0  0  0  0  0  0  0  0
    0.1689  104.5956   29.5125 C   0  0  0  0  0  0  0  0  0  0  0  0
    4.7885  106.9955   25.2437 C   0  0  0  0  0  0  0  0  0  0  0  0
    4.2735  105.3667   26.8485 C   0  0  0  0  0  0  0  0  0  0  0  0
   -5.2831  106.3932   26.6922 O   0  0  0  0  0  0  0  0  0  0  0  0
   -3.0542  107.0274   27.2320 C   0  0  0  0  0  0  0  0  0  0  0  0
   -1.9031  106.9851   26.2374 C   0  0  0  0  0  0  0  0  0  0  0  0
    2.7203  103.8209   27.5143 C   0  0  0  0  0  0  0  0  0  0  0  0
   -4.2683  107.0840   26.4207 C   0  0  0  0  0  0  0  0  0  0  0  0
   -2.9491  105.8872   28.1187 C   0  0  0  0  0  0  0  0  0  0  0  0
    5.5029  109.3025   24.8682 C   0  0  0  0  0  0  0  0  0  0  0  0
   -3.7927  108.5712   22.5879 C   0  0  0  0  0  0  0  0  0  0  0  0
    2.5156  106.0809   24.4362 C   0  0  0  0  0  0  0  0  0  0  0  0
   -2.4949  106.7796   24.9204 C   0  0  0  0  0  0  0  0  0  0  0  0
   -1.6749  105.5675   28.4611 N   0  0  0  0  0  0  0  0  0  0  0  0
    0.6642  105.6129   25.9533 C   0  0  0  0  0  0  0  0  0  0  0  0
    6.1623  111.1188   23.2815 O   0  0  0  0  0  0  0  0  0  0  0  0
   -1.8694  107.1271   23.6138 C   0  0  0  0  0  0  0  0  0  0  0  0
    3.0160  105.0129   26.5948 C   0  0  0  0  0  0  0  0  0  0  0  0
    5.7448  107.9189   24.9251 N   0  0  0  0  0  0  0  0  0  0  0  0
   -3.8446  109.1291   21.3115 C   0  0  0  0  0  0  0  0  0  0  0  0
   -0.9176  107.8510   18.4926 C   0  0  0  0  0  0  0  0  0  0  0  0
   -0.5913  106.8003   22.8717 C   0  0  0  0  0  0  0  0  0  0  0  0
    3.6935  107.6721   23.3198 O   0  0  0  0  0  0  0  0  0  0  0  0
    7.7436  109.6348   23.7903 O   0  0  0  0  0  0  0  0  0  0  0  0
    2.0917  105.5221   25.6546 C   0  0  0  0  0  0  0  0  0  0  0  0
    1.7992  105.9716   23.2477 N   0  0  0  0  0  0  0  0  0  0  0  0
   -2.5903  107.8952   22.7649 C   0  0  0  0  0  0  0  0  0  0  0  0
   -0.6014  107.4151   21.6445 C   0  0  0  0  0  0  0  0  0  0  0  0
    5.0608  106.2855   26.3637 N   0  0  0  0  0  0  0  0  0  0  0  0
   -2.4136  109.4038   19.3728 C   0  0  0  0  0  0  0  0  0  0  0  0
    0.4512  105.8764   23.1493 O   0  0  0  0  0  0  0  0  0  0  0  0
   -1.8399  108.0856   21.4684 C   0  0  0  0  0  0  0  0  0  0  0  0
   -0.9338  109.1159   19.2389 C   0  0  0  0  0  0  0  0  0  0  0  0
    0.4806  104.5727   28.0940 C   0  0  0  0  0  0  0  0  0  0  0  0
    3.6904  106.8697   24.3894 C   0  0  0  0  0  0  0  0  0  0  0  0
    0.3818  105.6871   27.3042 O   0  0  0  0  0  0  0  0  0  0  0  0
   -2.6394  108.8140   20.6621 C   0  0  0  0  0  0  0  0  0  0  0  0
   -3.8737  107.3960   25.0719 C   0  0  0  0  0  0  0  0  0  0  0  0
    6.5553  110.0526   23.9689 C   0  0  0  0  0  0  0  0  0  0  0  0
    1.2870  103.4030   27.6695 C   0  0  0  0  0  0  0  0  0  0  0  0
   -3.7831  105.9019   29.2896 C   0  0  0  0  0  0  0  0  0  0  0  0
  1  2  1  0
  1 15  1  0
  2 35  1  0
  3 20  1  0
  3 30  1  0
  3 36  2  0
  4 19  1  0
  4 30  2  0
  5  9  2  0
  6  7  1  0
  6  9  1  0
  6 10  1  0
  7 14  1  0
  8 19  1  0
  8 41  1  0
  9 39  1  0
 10 15  1  0
 10 42  1  0
 11 20  1  0
 11 40  1  0
 12 21  1  0
 12 28  1  0
 13 26  1  0
 13 27  2  0
 13 36  1  0
 14 18  1  0
 14 39  1  0
 16 26  1  0
 16 37  1  0
 17 40  2  0
 18 23  1  0
 18 28  2  0
 19 26  1  0
 21 38  1  0
 22 34  1  0
 23 29  1  0
 23 32  1  0
 24 36  1  0
 25 40  1  0
 27 32  1  0
 28 33  1  0
 29 33  1  0
 31 34  1  0
 31 38  1  0
 33 38  2  0
 35 37  1  0
 35 41  1  0
M  END
>  <ID>  (1) 
conformer_0

$$$$
