
     RDKit          3D

 17 16  0  0  0  0  0  0  0  0999 V2000
    3.9493  108.3876   24.4468 C   0  0  0  0  0  0  0  0  0  0  0  0
    0.2569  107.0257   22.4745 C   0  0  0  0  0  0  0  0  0  0  0  0
    2.5558  106.8330   23.2007 O   0  0  0  0  0  0  0  0  0  0  0  0
    1.2122  107.3529   23.4279 N   0  0  0  0  0  0  0  0  0  0  0  0
    2.9154  107.2829   24.5189 C   0  0  0  0  0  0  0  0  0  0  0  0
   -1.1396  108.1246   20.9353 N   0  0  0  0  0  0  0  0  0  0  0  0
    5.9890  110.8481   24.3951 O   0  0  0  0  0  0  0  0  0  0  0  0
    0.0678  105.8736   21.9397 O   0  0  0  0  0  0  0  0  0  0  0  0
    6.5676  109.7341   24.5680 C   0  0  0  0  0  0  0  0  0  0  0  0
    7.6577  109.4508   23.9233 O   0  0  0  0  0  0  0  0  0  0  0  0
   -0.6693  108.1296   18.6201 O   0  0  0  0  0  0  0  0  0  0  0  0
    6.1179  108.8516   25.6955 C   0  0  0  0  0  0  0  0  0  0  0  0
   -2.5863  109.3657   19.3721 C   0  0  0  0  0  0  0  0  0  0  0  0
   -1.3949  108.4606   19.7177 C   0  0  0  0  0  0  0  0  0  0  0  0
   -0.7075  109.0950   22.9979 O   0  0  0  0  0  0  0  0  0  0  0  0
   -0.5916  108.1512   22.1050 C   0  0  0  0  0  0  0  0  0  0  0  0
    4.7783  108.3536   25.6572 C   0  0  0  0  0  0  0  0  0  0  0  0
  1  5  1  0
  1 17  1  0
  2  4  1  0
  2  8  2  0
  2 16  1  0
  3  4  1  0
  3  5  1  0
  6 14  1  0
  6 16  1  0
  7  9  2  0
  9 10  1  0
  9 12  1  0
 11 14  2  0
 12 17  1  0
 13 14  1  0
 15 16  2  0
M  END
>  <ID>  (1) 
conformer_0

$$$$
