
     RDKit          3D

 31 34  0  0  0  0  0  0  0  0999 V2000
    2.3946  106.0244   24.4703 C   0  0  0  0  0  0  0  0  0  0  0  0
    3.1298  105.5012   23.3784 O   0  0  0  0  0  0  0  0  0  0  0  0
    3.5932  107.0975   25.1285 C   0  0  0  0  0  0  0  0  0  0  0  0
   -1.8936  108.3954   21.4853 C   0  0  0  0  0  0  0  0  0  0  0  0
    6.0728  107.3911   28.8298 O   0  0  0  0  0  0  0  0  0  0  0  0
   -1.2294  106.6813   24.3317 N   0  0  0  0  0  0  0  0  0  0  0  0
   -0.0607  105.9347   24.2655 C   0  0  0  0  0  0  0  0  0  0  0  0
    1.1415  106.7163   23.9565 C   0  0  0  0  0  0  0  0  0  0  0  0
   -4.1266  109.3823   20.8217 C   0  0  0  0  0  0  0  0  0  0  0  0
   -1.2427  107.9453   23.7759 O   0  0  0  0  0  0  0  0  0  0  0  0
    1.8283  105.0609   25.3027 N   0  0  0  0  0  0  0  0  0  0  0  0
    6.5709  107.6828   27.7179 C   0  0  0  0  0  0  0  0  0  0  0  0
   -2.2817  108.3172   22.8629 C   0  0  0  0  0  0  0  0  0  0  0  0
   -4.0964  108.5167   24.3418 O   0  0  0  0  0  0  0  0  0  0  0  0
    6.8426  109.1529   24.7494 C   0  0  0  0  0  0  0  0  0  0  0  0
   -4.4699  109.3285   22.1672 C   0  0  0  0  0  0  0  0  0  0  0  0
   -2.4254  108.8671   19.1967 C   0  0  0  0  0  0  0  0  0  0  0  0
    6.9094  109.5276   26.1355 C   0  0  0  0  0  0  0  0  0  0  0  0
   -0.2647  107.9893   19.8018 C   0  0  0  0  0  0  0  0  0  0  0  0
   -2.8177  108.8643   20.5429 C   0  0  0  0  0  0  0  0  0  0  0  0
    0.3521  104.9815   25.2929 C   0  0  0  0  0  0  0  0  0  0  0  0
    3.3028  108.1582   24.1797 O   0  0  0  0  0  0  0  0  0  0  0  0
    5.8585  108.2071   24.5773 O   0  0  0  0  0  0  0  0  0  0  0  0
    2.4124  104.6383   26.4868 O   0  0  0  0  0  0  0  0  0  0  0  0
    5.8224  108.6814   26.8717 C   0  0  0  0  0  0  0  0  0  0  0  0
   -0.6218  108.0210   21.1198 C   0  0  0  0  0  0  0  0  0  0  0  0
    7.6291  107.1558   27.2560 O   0  0  0  0  0  0  0  0  0  0  0  0
   -1.1772  108.4264   18.8532 C   0  0  0  0  0  0  0  0  0  0  0  0
   -3.6078  108.7096   23.0872 N   0  0  0  0  0  0  0  0  0  0  0  0
    7.8490  109.3772   23.8961 N   0  0  0  0  0  0  0  0  0  0  0  0
    4.9639  107.9051   25.7632 C   0  0  0  0  0  0  0  0  0  0  0  0
  1  2  1  0
  1  3  1  0
  1  8  1  0
  1 11  1  0
  3 22  1  0
  3 31  1  0
  4 13  1  0
  4 20  2  0
  4 26  1  0
  5 12  2  0
  6  7  2  3
  6 10  1  0
  7  8  1  0
  7 21  1  0
  9 16  1  0
  9 20  1  0
 10 13  1  0
 11 21  1  0
 11 24  1  0
 12 25  1  0
 12 27  1  0
 13 29  1  0
 14 29  1  0
 15 18  1  0
 15 23  1  0
 15 30  1  0
 16 29  1  0
 17 20  1  0
 17 28  2  0
 18 25  1  0
 19 26  2  0
 19 28  1  0
 23 31  1  0
 25 31  1  0
M  END
>  <ID>  (1) 
conformer_0

$$$$
