
     RDKit          3D

 25 28  0  0  0  0  0  0  0  0999 V2000
    6.6013  109.6751   24.4100 P   0  0  0  0  0  4  0  0  0  0  0  0
    4.3559  108.5076   23.6995 C   0  0  0  0  0  0  0  0  0  0  0  0
   -1.6174  108.5361   18.8556 C   0  0  0  0  0  0  0  0  0  0  0  0
   -0.7482  107.9143   19.7225 C   0  0  0  0  0  0  0  0  0  0  0  0
   -1.8334  107.7909   23.6596 C   0  0  0  0  0  0  0  0  0  0  0  0
    5.3937  108.5512   27.2798 C   0  0  0  0  0  0  0  0  0  0  0  0
   -0.9971  107.9210   21.0729 C   0  0  0  0  0  0  0  0  0  0  0  0
   -0.1298  107.3504   22.0473 C   0  0  0  0  0  0  0  0  0  0  0  0
    3.3039  107.7847   23.4639 C   0  0  0  0  0  0  0  0  0  0  0  0
    6.2876  110.7552   23.3486 O   0  0  0  0  0  1  0  0  0  0  0  0
    3.9930  107.0028   26.1062 C   0  0  0  0  0  0  0  0  0  0  0  0
    0.1342  106.3285   24.1957 C   0  0  0  0  0  0  0  0  0  0  0  0
    7.6243  108.7315   23.8111 O   0  0  0  0  0  0  0  0  0  0  0  0
   -2.5841  108.4769   22.7991 N   0  0  0  0  0  0  0  0  0  0  0  0
    2.6075  106.8435   24.1642 C   0  0  0  0  0  0  0  0  0  0  0  0
    1.4409  106.2547   23.5182 C   0  0  0  0  0  0  0  0  0  0  0  0
    1.2057  106.9307   22.1516 O   0  0  0  0  0  0  0  0  0  0  0  0
    7.1025  110.3440   25.6549 O   0  0  0  0  0  0  0  0  0  0  0  0
   -2.7794  109.1809   19.2818 C   0  0  0  0  0  0  0  0  0  0  0  0
    5.1740  108.6683   24.7375 C   0  0  0  0  0  0  0  0  0  0  0  0
   -0.6882  107.1805   23.3104 C   0  0  0  0  0  0  0  0  0  0  0  0
    3.0189  106.4393   25.4082 C   0  0  0  0  0  0  0  0  0  0  0  0
    4.8572  108.0202   25.9807 C   0  0  0  0  0  0  0  0  0  0  0  0
   -2.1971  108.5030   21.5086 C   0  0  0  0  0  0  0  0  0  0  0  0
   -3.0853  109.1596   20.6362 C   0  0  0  0  0  0  0  0  0  0  0  0
  1 10  2  0
  1 13  1  0
  1 18  1  0
  1 20  1  0
  2  9  2  0
  2 20  1  0
  3  4  2  0
  3 19  1  0
  4  7  1  0
  5 14  1  0
  5 21  2  0
  6 23  1  0
  7  8  2  0
  7 24  1  0
  8 17  1  0
  8 21  1  0
  9 15  1  0
 11 22  2  0
 11 23  1  0
 12 16  1  0
 12 21  1  0
 14 24  2  0
 15 16  1  0
 15 22  1  0
 16 17  1  0
 19 25  2  0
 20 23  1  0
 24 25  1  0
M  END
>  <ID>  (1) 
conformer_0

$$$$
