
     RDKit          3D

 22 23  0  0  0  0  0  0  0  0999 V2000
    5.3493  109.3343   24.4030 C   0  0  0  0  0  0  0  0  0  0  0  0
    2.0276  107.0490   23.2012 N   0  0  0  0  0  0  0  0  0  0  0  0
    6.0532  111.3744   23.2263 O   0  0  0  0  0  0  0  0  0  0  0  0
   -2.1279  108.6845   21.7882 C   0  0  0  0  0  0  0  0  0  0  0  0
    7.5165  109.7826   23.5497 O   0  0  0  0  0  0  0  0  0  0  0  0
    6.3198  110.1926   23.6527 C   0  0  0  0  0  0  0  0  0  0  0  0
   -0.2014  107.9611   20.5420 C   0  0  0  0  0  0  0  0  0  0  0  0
    4.0417  107.6878   26.1371 C   0  0  0  0  0  0  0  0  0  0  0  0
    5.0618  108.4202   26.5884 C   0  0  0  0  0  0  0  0  0  0  0  0
    4.0418  105.1083   26.9486 C   0  0  0  0  0  0  0  0  0  0  0  0
    0.6794  106.7944   22.8443 C   0  0  0  0  0  0  0  0  0  0  0  0
    5.6615  109.2413   25.7166 C   0  0  0  0  0  0  0  0  0  0  0  0
   -0.8563  108.2025   21.7302 C   0  0  0  0  0  0  0  0  0  0  0  0
   -2.7761  109.0223   20.6030 C   0  0  0  0  0  0  0  0  0  0  0  0
   -0.8232  108.3265   19.3822 C   0  0  0  0  0  0  0  0  0  0  0  0
    2.6933  105.6126   26.5795 N   0  0  0  0  0  0  0  0  0  0  0  0
   -0.1581  107.9764   22.9874 C   0  0  0  0  0  0  0  0  0  0  0  0
    3.5576  107.7506   24.8681 C   0  0  0  0  0  0  0  0  0  0  0  0
   -2.0872  108.8659   19.4053 C   0  0  0  0  0  0  0  0  0  0  0  0
    1.9469  105.8941   25.3696 C   0  0  0  0  0  0  0  0  0  0  0  0
    4.2282  108.5616   23.9393 C   0  0  0  0  0  0  0  0  0  0  0  0
    2.3197  107.0573   24.5313 C   0  0  0  0  0  0  0  0  0  0  0  0
  1  6  1  0
  1 12  2  0
  1 21  1  0
  2 11  1  0
  2 22  1  0
  3  6  2  0
  4 13  2  0
  4 14  1  0
  5  6  1  0
  7 13  1  0
  7 15  2  0
  8  9  2  0
  8 18  1  0
  9 12  1  0
 10 16  1  0
 11 17  1  0
 13 17  1  0
 14 19  2  0
 15 19  1  0
 16 20  1  0
 18 21  2  0
 18 22  1  0
 20 22  1  0
M  END
>  <ID>  (1) 
conformer_0

$$$$
