
     RDKit          3D

 25 26  0  0  0  0  0  0  0  0999 V2000
   -1.1677  108.0147   19.3492 C   0  0  0  0  0  0  0  0  0  0  0  0
    2.5117  104.8378   24.2102 C   0  0  0  0  0  0  0  0  0  0  0  0
    3.8503  108.1035   24.4532 C   0  0  0  0  0  0  0  0  0  0  0  0
    6.4604  108.0973   25.3470 C   0  0  0  0  0  0  0  0  0  0  0  0
    6.6580  111.0025   23.2821 O   0  0  0  0  0  0  0  0  0  0  0  0
    4.2091  107.2295   25.4632 C   0  0  0  0  0  0  0  0  0  0  0  0
   -0.1755  107.1190   21.3515 O   0  0  0  0  0  0  0  0  0  0  0  0
   -3.1646  109.2421   20.8580 C   0  0  0  0  0  0  0  0  0  0  0  0
   -2.1577  108.4842   21.4594 C   0  0  0  0  0  0  0  0  0  0  0  0
    0.1897  108.3795   23.2111 O   0  0  0  0  0  0  0  0  0  0  0  0
    7.0747  109.9028   23.7916 C   0  0  0  0  0  0  0  0  0  0  0  0
    3.2448  106.2962   26.0414 C   0  0  0  0  0  0  0  0  0  0  0  0
    3.4280  105.7905   27.1834 O   0  0  0  0  0  0  0  0  0  0  0  0
    0.3985  106.1152   23.5450 C   0  0  0  0  0  0  0  0  0  0  0  0
    5.5251  107.2666   25.9391 C   0  0  0  0  0  0  0  0  0  0  0  0
   -1.1775  107.8583   20.7231 C   0  0  0  0  0  0  0  0  0  0  0  0
    2.1619  105.8675   25.1950 C   0  0  0  0  0  0  0  0  0  0  0  0
    4.7875  108.9614   23.9110 C   0  0  0  0  0  0  0  0  0  0  0  0
    6.0954  108.9712   24.3461 C   0  0  0  0  0  0  0  0  0  0  0  0
    2.9684  105.4264   22.9137 O   0  0  0  0  0  0  0  0  0  0  0  0
   -2.1227  108.8265   18.7488 C   0  0  0  0  0  0  0  0  0  0  0  0
    0.0401  107.2503   22.6830 C   0  0  0  0  0  0  0  0  0  0  0  0
   -3.1250  109.4330   19.4787 C   0  0  0  0  0  0  0  0  0  0  0  0
    1.0725  106.7403   24.8493 C   0  0  0  0  0  0  0  0  0  0  0  0
    8.3308  109.5823   23.7581 O   0  0  0  0  0  0  0  0  0  0  0  0
  1 16  1  0
  1 21  1  0
  2 17  1  0
  2 20  1  0
  3  6  2  0
  3 18  1  0
  4 15  2  0
  4 19  1  0
  5 11  2  0
  6 12  1  0
  6 15  1  0
  7 16  1  0
  7 22  1  0
  8  9  1  0
  8 23  1  0
  9 16  2  0
 10 22  2  0
 11 19  1  0
 11 25  1  0
 12 13  2  0
 12 17  1  0
 14 22  1  0
 14 24  1  0
 17 24  1  0
 18 19  2  0
 21 23  2  0
M  END
>  <ID>  (1) 
conformer_0

$$$$
