
     RDKit          3D

 28 29  0  0  0  0  0  0  0  0999 V2000
    4.0294  107.5791   25.4018 C   0  0  0  0  0  0  0  0  0  0  0  0
    1.8283  103.2400   23.8370 O   0  0  0  0  0  0  0  0  0  0  0  0
    7.6609  109.4344   23.7332 O   0  0  0  0  0  0  0  0  0  0  0  0
   -2.5134  108.3344   22.7872 C   0  0  0  0  0  0  0  0  0  0  0  0
   -0.7963  107.3456   24.3064 N   0  0  0  0  0  0  0  0  0  0  0  0
    4.4060  108.8738   24.9472 C   0  0  0  0  0  0  0  0  0  0  0  0
   -1.5959  106.1582   24.2162 C   0  0  0  0  0  0  0  0  0  0  0  0
    6.6128  109.8753   24.2815 C   0  0  0  0  0  0  0  0  0  0  0  0
   -2.0698  108.4642   21.3547 C   0  0  0  0  0  0  0  0  0  0  0  0
   -1.1819  108.5770   18.7499 C   0  0  0  0  0  0  0  0  0  0  0  0
   -2.5071  108.7600   19.0011 C   0  0  0  0  0  0  0  0  0  0  0  0
    6.1618  111.0413   23.9907 O   0  0  0  0  0  0  0  0  0  0  0  0
    2.9552  104.9270   22.5499 O   0  0  0  0  0  0  0  0  0  0  0  0
   -0.6937  108.3729   21.0587 C   0  0  0  0  0  0  0  0  0  0  0  0
    5.8327  109.1414   25.3600 C   0  0  0  0  0  0  0  0  0  0  0  0
    3.0052  105.4637   25.0125 C   0  0  0  0  0  0  0  0  0  0  0  0
    1.8118  107.7151   24.2634 S   0  0  0  0  0  0  0  0  0  0  0  0
    5.8598  108.8259   26.7727 C   0  0  0  0  0  0  0  0  0  0  0  0
   -0.2441  108.4081   19.7882 C   0  0  0  0  0  0  0  0  0  0  0  0
   -1.4014  108.5616   23.8079 C   0  0  0  0  0  0  0  0  0  0  0  0
    0.5246  107.0800   24.5506 C   0  0  0  0  0  0  0  0  0  0  0  0
   -3.0097  108.6801   20.3160 C   0  0  0  0  0  0  0  0  0  0  0  0
   -2.7872  106.0951   24.6851 O   0  0  0  0  0  0  0  0  0  0  0  0
   -0.7449  105.0611   23.8444 C   0  0  0  0  0  0  0  0  0  0  0  0
    0.6282  105.5678   24.0803 C   0  0  0  0  0  0  0  0  0  0  0  0
    6.4818  108.0154   25.8404 O   0  0  0  0  0  0  0  0  0  0  0  0
    2.0557  104.7401   23.7534 P   0  0  0  0  0  0  0  0  0  0  0  0
    2.9783  106.9346   24.6485 C   0  0  0  0  0  0  0  0  0  0  0  0
  1  6  1  0
  1 28  1  0
  2 27  1  0
  3  8  2  0
  4  9  1  0
  4 20  1  0
  5  7  1  0
  5 20  1  0
  5 21  1  0
  6 15  1  0
  7 23  2  0
  7 24  1  0
  8 12  1  0
  8 15  1  0
  9 14  1  0
  9 22  2  0
 10 11  2  0
 10 19  1  0
 11 22  1  0
 13 27  1  0
 14 19  2  0
 15 18  1  0
 16 28  1  0
 17 21  1  0
 17 28  1  0
 18 26  1  0
 21 25  1  0
 24 25  1  0
 25 27  1  0
M  END
>  <ID>  (1) 
conformer_0

$$$$
