
     RDKit          3D

 27 30  0  0  0  0  0  0  0  0999 V2000
    1.3246  105.5372   25.1414 C   0  0  0  0  0  0  0  0  0  0  0  0
   -0.9983  108.1122   19.7558 C   0  0  0  0  0  0  0  0  0  0  0  0
   -1.4724  108.4008   20.9955 C   0  0  0  0  0  0  0  0  0  0  0  0
    0.5009  107.4704   22.1685 O   0  0  0  0  0  0  0  0  0  0  0  0
    2.8865  106.9902   23.8466 C   0  0  0  0  0  0  0  0  0  0  0  0
    1.6239  106.3959   24.1960 C   0  0  0  0  0  0  0  0  0  0  0  0
   -3.3913  109.5265   20.0598 C   0  0  0  0  0  0  0  0  0  0  0  0
    3.0489  107.4949   22.6842 O   0  0  0  0  0  0  0  0  0  0  0  0
    5.0119  107.9095   24.4382 C   0  0  0  0  0  0  0  0  0  0  0  0
    3.9671  107.0752   24.8017 C   0  0  0  0  0  0  0  0  0  0  0  0
    3.9468  106.4626   26.0530 C   0  0  0  0  0  0  0  0  0  0  0  0
   -1.4837  107.6347   23.2974 C   0  0  0  0  0  0  0  0  0  0  0  0
   -1.7024  108.5694   18.6471 C   0  0  0  0  0  0  0  0  0  0  0  0
   -2.6902  109.0488   21.1636 C   0  0  0  0  0  0  0  0  0  0  0  0
    5.9887  107.7186   26.5911 C   0  0  0  0  0  0  0  0  0  0  0  0
    7.0591  109.2015   24.9234 C   0  0  0  0  0  0  0  0  0  0  0  0
   -0.7345  108.1040   22.1701 C   0  0  0  0  0  0  0  0  0  0  0  0
    4.9386  106.4593   28.1842 O   0  0  0  0  0  0  0  0  0  0  0  0
    7.4766  110.0245   25.8176 O   0  0  0  0  0  0  0  0  0  0  0  0
    7.6122  109.1504   23.7627 O   0  0  0  0  0  0  0  0  0  0  0  0
    3.1028  105.5322   26.5262 C   0  0  0  0  0  0  0  0  0  0  0  0
    6.0158  108.2591   25.3040 C   0  0  0  0  0  0  0  0  0  0  0  0
    1.9248  105.0158   26.1874 C   0  0  0  0  0  0  0  0  0  0  0  0
   -2.8609  109.2940   18.8039 C   0  0  0  0  0  0  0  0  0  0  0  0
    4.9646  106.8534   26.9625 C   0  0  0  0  0  0  0  0  0  0  0  0
   -0.6500  106.7779   23.9523 N   0  0  0  0  0  0  0  0  0  0  0  0
    0.5797  106.8105   23.3497 C   0  0  0  0  0  0  0  0  0  0  0  0
  1  6  1  0
  1 23  2  0
  2  3  2  0
  2 13  1  0
  3 14  1  0
  3 17  1  0
  4 17  1  0
  4 27  1  0
  5  6  1  0
  5  8  2  0
  5 10  1  0
  6 27  1  0
  7 14  2  0
  7 24  1  0
  9 10  1  0
  9 22  2  0
 10 11  1  0
 11 21  2  0
 11 25  1  0
 12 17  1  0
 12 26  1  0
 13 24  2  0
 15 22  1  0
 15 25  1  0
 16 19  2  0
 16 20  1  0
 16 22  1  0
 18 25  2  0
 21 23  1  0
 26 27  1  0
M  END
>  <ID>  (1) 
conformer_0

$$$$
