
     RDKit          3D

 29 31  0  0  0  0  0  0  0  0999 V2000
   -0.9126  107.9908   17.9618 C   0  0  0  0  0  0  0  0  0  0  0  0
   -2.8276  108.1765   22.3124 C   0  0  0  0  0  0  0  0  0  0  0  0
   -1.3827  106.3282   25.2172 C   0  0  0  0  0  0  0  0  0  0  0  0
    0.8339  108.9675   19.6420 C   0  0  0  0  0  0  0  0  0  0  0  0
    0.6420  105.7361   26.4567 C   0  0  0  0  0  0  0  0  0  0  0  0
    3.9959  108.1068   23.6611 C   0  0  0  0  0  0  0  0  0  0  0  0
    0.0276  106.2173   25.1836 C   0  0  0  0  0  0  0  0  0  0  0  0
   -2.2698  106.9035   24.4509 C   0  0  0  0  0  0  0  0  0  0  0  0
    6.1310  108.6339   26.5603 O   0  0  0  0  0  0  0  0  0  0  0  0
    0.7628  104.2314   26.4468 C   0  0  0  0  0  0  0  0  0  0  0  0
    1.9535  107.0004   23.3714 C   0  0  0  0  0  0  0  0  0  0  0  0
   -0.1413  107.0232   22.9691 C   0  0  0  0  0  0  0  0  0  0  0  0
   -0.5658  108.5123   19.3003 C   0  0  0  0  0  0  0  0  0  0  0  0
    3.2186  106.9032   25.5201 C   0  0  0  0  0  0  0  0  0  0  0  0
    6.0376  109.4699   23.8808 C   0  0  0  0  0  0  0  0  0  0  0  0
    0.6482  106.6770   23.9482 C   0  0  0  0  0  0  0  0  0  0  0  0
   -0.5912  107.4614   21.8575 C   0  0  0  0  0  0  0  0  0  0  0  0
   -3.9301  108.9039   21.9695 C   0  0  0  0  0  0  0  0  0  0  0  0
    3.0537  107.3256   24.2330 C   0  0  0  0  0  0  0  0  0  0  0  0
    4.2483  107.2819   26.2895 C   0  0  0  0  0  0  0  0  0  0  0  0
   -1.7293  108.6305   20.1703 C   0  0  0  0  0  0  0  0  0  0  0  0
   -1.7177  108.0816   21.4329 C   0  0  0  0  0  0  0  0  0  0  0  0
    6.5360  110.3062   24.7995 N   0  0  0  0  0  0  0  0  0  0  0  0
    5.1764  108.1870   25.7538 C   0  0  0  0  0  0  0  0  0  0  0  0
   -2.8736  109.3503   19.8406 C   0  0  0  0  0  0  0  0  0  0  0  0
    5.0541  108.5746   24.4169 C   0  0  0  0  0  0  0  0  0  0  0  0
   -3.9551  109.5142   20.7306 C   0  0  0  0  0  0  0  0  0  0  0  0
   -2.8682  107.5450   23.5105 C   0  0  0  0  0  0  0  0  0  0  0  0
    2.1442  107.1899   22.0870 O   0  0  0  0  0  0  0  0  0  0  0  0
  1 13  1  0
  2 18  1  0
  2 22  2  0
  2 28  1  0
  3  7  1  0
  3  8  2  0
  4 13  1  0
  5  7  1  0
  5 10  1  0
  6 19  2  0
  6 26  1  0
  7 16  1  0
  8 28  2  0
  9 24  1  0
 11 16  1  0
 11 19  1  0
 11 29  1  0
 12 16  2  0
 12 17  2  0
 13 21  1  0
 14 19  1  0
 14 20  2  0
 15 23  1  0
 15 26  1  0
 17 22  1  0
 18 27  2  0
 20 24  1  0
 21 22  1  0
 21 25  2  0
 24 26  2  0
 25 27  1  0
M  END
>  <ID>  (1) 
conformer_0

$$$$
