
     RDKit          3D

 27 28  0  0  0  0  0  0  0  0999 V2000
    1.2393  107.3311   23.2826 C   0  0  0  0  0  0  0  0  0  0  0  0
    3.9812  107.4967   24.7956 C   0  0  0  0  0  0  0  0  0  0  0  0
   -0.9818  108.0683   22.9746 O   0  0  0  0  0  0  0  0  0  0  0  0
   -1.1157  108.3255   19.3344 C   0  0  0  0  0  0  0  0  0  0  0  0
    5.1905  107.9813   25.5943 C   0  0  0  0  0  0  0  0  0  0  0  0
   -0.6888  107.9065   20.5743 C   0  0  0  0  0  0  0  0  0  0  0  0
    0.7916  104.3802   22.8634 O   0  0  0  0  0  0  0  0  0  0  0  0
    6.2805  109.3868   24.0574 N   0  0  0  0  0  0  0  0  0  0  0  0
   -2.5560  109.0622   21.5722 N   0  0  0  0  0  0  0  0  0  0  0  0
    6.9022  109.5412   25.0447 C   0  0  0  0  0  0  0  0  0  0  0  0
    1.2838  102.7477   27.9629 C   0  0  0  0  0  0  0  0  0  0  0  0
    2.2904  104.0177   24.7141 N   0  0  0  0  0  0  0  0  0  0  0  0
    5.7011  109.0181   24.8691 C   0  0  0  0  0  0  0  0  0  0  0  0
    2.4804  104.0020   26.1602 C   0  0  0  0  0  0  0  0  0  0  0  0
    1.1982  103.6125   26.7923 C   0  0  0  0  0  0  0  0  0  0  0  0
   -1.4076  108.3346   21.6650 C   0  0  0  0  0  0  0  0  0  0  0  0
    3.5918  108.2412   23.8991 O   0  0  0  0  0  0  0  0  0  0  0  0
    0.0744  103.9608   26.2413 O   0  0  0  0  0  0  0  0  0  0  0  0
    3.3605  106.2591   24.7551 N   0  0  0  0  0  0  0  0  0  0  0  0
    2.1417  106.2468   23.8503 C   0  0  0  0  0  0  0  0  0  0  0  0
    7.3081  109.5202   26.3161 N   0  0  0  0  0  0  0  0  0  0  0  0
    5.6204  107.9383   26.9086 C   0  0  0  0  0  0  0  0  0  0  0  0
   -3.0482  109.4009   20.3120 C   0  0  0  0  0  0  0  0  0  0  0  0
   -2.3022  109.0644   19.2099 C   0  0  0  0  0  0  0  0  0  0  0  0
    6.7195  108.7385   27.2561 C   0  0  0  0  0  0  0  0  0  0  0  0
    1.4883  104.8812   23.9097 C   0  0  0  0  0  0  0  0  0  0  0  0
   -0.1953  106.9435   23.1622 C   0  0  0  0  0  0  0  0  0  0  0  0
  1 20  1  0
  1 27  1  0
  2  5  1  0
  2 17  2  0
  2 19  1  0
  3 16  1  0
  3 27  1  0
  4  6  2  0
  4 24  1  0
  5 13  1  0
  5 22  2  0
  6 16  1  0
  7 26  2  0
  8 10  1  0
  8 13  1  0
  9 16  2  0
  9 23  1  0
 10 21  1  0
 11 15  1  0
 12 14  1  0
 12 26  1  0
 14 15  1  0
 15 18  1  0
 19 20  1  0
 20 26  1  0
 21 25  2  0
 22 25  1  0
 23 24  2  0
M  END
>  <ID>  (1) 
conformer_0

$$$$
