
     RDKit          3D

 28 32  0  0  0  0  0  0  0  0999 V2000
    3.2190  107.1196   24.5893 C   0  0  0  0  0  0  0  0  0  0  0  0
   -0.3795  106.6136   22.4352 C   0  0  0  0  0  0  0  0  0  0  0  0
    5.2589  108.0461   25.6748 C   0  0  0  0  0  0  0  0  0  0  0  0
    0.7830  104.7189   27.3358 C   0  0  0  0  0  0  0  0  0  0  0  0
   -0.7924  107.5389   21.4265 N   0  0  0  0  0  0  0  0  0  0  0  0
   -0.1398  108.3357   20.4070 C   0  0  0  0  0  0  0  0  0  0  0  0
    2.9588  107.8022   23.4062 C   0  0  0  0  0  0  0  0  0  0  0  0
    2.7746  105.6932   26.3157 C   0  0  0  0  0  0  0  0  0  0  0  0
    7.0675  109.1488   24.9776 N   0  0  0  0  0  0  0  0  0  0  0  0
    6.3089  107.6919   26.6101 C   0  0  0  0  0  0  0  0  0  0  0  0
   -2.1642  108.0591   21.7096 C   0  0  0  0  0  0  0  0  0  0  0  0
    4.2637  107.1929   25.5314 C   0  0  0  0  0  0  0  0  0  0  0  0
   -2.3655  108.9914   19.2910 C   0  0  0  0  0  0  0  0  0  0  0  0
    7.9089  109.1968   23.8890 O   0  0  0  0  0  0  0  0  0  0  0  0
    5.0539  110.1593   24.7180 O   0  0  0  0  0  0  0  0  0  0  0  0
    1.1935  105.9458   24.2455 C   0  0  0  0  0  0  0  0  0  0  0  0
    4.0108  106.2628   26.5398 C   0  0  0  0  0  0  0  0  0  0  0  0
    0.3298  104.7624   24.4860 C   0  0  0  0  0  0  0  0  0  0  0  0
    2.2003  104.9712   27.3347 O   0  0  0  0  0  0  0  0  0  0  0  0
    2.2627  106.1714   25.0486 C   0  0  0  0  0  0  0  0  0  0  0  0
   -0.9041  105.1595   24.9610 O   0  0  0  0  0  0  0  0  0  0  0  0
   -0.9465  108.4411   19.1456 C   0  0  0  0  0  0  0  0  0  0  0  0
   -2.8217  108.9899   20.7465 C   0  0  0  0  0  0  0  0  0  0  0  0
    1.8419  107.6479   22.6945 N   0  0  0  0  0  0  0  0  0  0  0  0
    7.5449  108.3329   26.0819 C   0  0  0  0  0  0  0  0  0  0  0  0
    0.2188  104.4371   25.9162 C   0  0  0  0  0  0  0  0  0  0  0  0
    5.6715  109.0765   24.8386 C   0  0  0  0  0  0  0  0  0  0  0  0
    0.9094  106.7609   23.1379 C   0  0  0  0  0  0  0  0  0  0  0  0
  1  7  1  0
  1 12  2  0
  1 20  1  0
  2  5  1  0
  2 28  2  3
  3 10  1  0
  3 12  1  0
  3 27  1  0
  4 19  1  0
  4 26  1  0
  5  6  1  0
  5 11  1  0
  6 22  1  0
  7 24  2  0
  8 17  1  0
  8 19  1  0
  8 20  1  0
  9 14  1  0
  9 25  1  0
  9 27  1  0
 10 25  1  0
 11 23  1  0
 12 17  1  0
 13 22  1  0
 13 23  1  0
 15 27  2  0
 16 18  1  0
 16 20  2  0
 16 28  1  0
 18 21  1  0
 18 26  1  0
 24 28  1  0
M  END
>  <ID>  (1) 
conformer_0

$$$$
