
     RDKit          3D

 29 32  0  0  0  0  0  0  0  0999 V2000
    7.8571  109.0802   25.9800 N   0  0  0  0  0  0  0  0  0  0  0  0
    1.1461  106.0426   24.7160 C   0  0  0  0  0  0  0  0  0  0  0  0
    3.8491  108.4519   23.7109 O   0  0  0  0  0  0  0  0  0  0  0  0
   -0.3784  107.8598   21.6460 C   0  0  0  0  0  0  0  0  0  0  0  0
   -4.2567  109.4473   23.2234 O   0  0  0  0  0  0  0  0  0  0  0  0
   -2.9721  109.1953   18.5080 C   0  0  0  0  0  0  0  0  0  0  0  0
    2.9894  107.4587   24.1862 C   0  0  0  0  0  0  0  0  0  0  0  0
    0.6724  107.4126   22.7299 C   0  0  0  0  0  0  0  0  0  0  0  0
   -3.7643  108.3883   23.6620 C   0  0  0  0  0  0  0  0  0  0  0  0
   -0.7564  108.3708   19.3468 C   0  0  0  0  0  0  0  0  0  0  0  0
    4.9698  108.5563   24.5835 C   0  0  0  0  0  0  0  0  0  0  0  0
    1.6816  107.0253   23.8502 C   0  0  0  0  0  0  0  0  0  0  0  0
    5.9681  109.7254   24.5126 C   0  0  0  0  0  0  0  0  0  0  0  0
   -2.4347  108.0018   23.2002 C   0  0  0  0  0  0  0  0  0  0  0  0
    4.8708  107.5372   25.5023 O   0  0  0  0  0  0  0  0  0  0  0  0
   -2.0624  108.7178   19.5767 C   0  0  0  0  0  0  0  0  0  0  0  0
    0.1220  107.9838   20.3596 C   0  0  0  0  0  0  0  0  0  0  0  0
    3.0541  105.8755   26.0405 C   0  0  0  0  0  0  0  0  0  0  0  0
    1.7714  105.5119   25.7604 C   0  0  0  0  0  0  0  0  0  0  0  0
   -2.5728  108.6320   20.8379 C   0  0  0  0  0  0  0  0  0  0  0  0
   -4.3165  107.7019   24.5785 O   0  0  0  0  0  0  0  0  0  0  0  0
    8.2321  109.3037   23.6740 O   0  0  0  0  0  0  0  0  0  0  0  0
    5.8673  110.6279   23.4601 O   0  0  0  0  0  0  0  0  0  0  0  0
   -1.8015  108.1590   21.8648 C   0  0  0  0  0  0  0  0  0  0  0  0
    7.4527  109.3636   24.7047 C   0  0  0  0  0  0  0  0  0  0  0  0
    3.7505  105.2725   27.0271 N   0  0  0  0  0  0  0  0  0  0  0  0
   -1.8191  106.8031   23.8837 C   0  0  0  0  0  0  0  0  0  0  0  0
   -0.4483  106.9067   23.4763 N   0  0  0  0  0  0  0  0  0  0  0  0
    3.6534  106.8678   25.2888 C   0  0  0  0  0  0  0  0  0  0  0  0
  1 25  1  0
  2 12  2  0
  2 19  1  0
  3  7  1  0
  3 11  1  0
  4  8  1  0
  4 17  2  0
  4 24  1  0
  5  9  2  0
  6 16  1  0
  7 12  1  0
  7 29  2  0
  8 12  1  0
  8 28  1  0
  9 14  1  0
  9 21  1  0
 10 16  2  0
 10 17  1  0
 11 13  1  0
 11 15  1  0
 13 23  1  0
 13 25  1  0
 14 24  1  0
 14 27  1  0
 15 29  1  0
 16 20  1  0
 18 19  2  0
 18 26  1  0
 18 29  1  0
 20 24  2  0
 22 25  2  0
 27 28  1  0
M  END
>  <ID>  (1) 
conformer_0

$$$$
