
     RDKit          3D

 19 19  0  0  0  0  0  0  0  0999 V2000
    6.4788  109.4841   25.4867 C   0  0  0  0  0  0  0  0  0  0  0  0
    4.9342  107.8647   26.1461 C   0  0  0  0  0  0  0  0  0  0  0  0
    4.4081  107.8067   24.9003 C   0  0  0  0  0  0  0  0  0  0  0  0
    5.9502  109.4879   24.2203 C   0  0  0  0  0  0  0  0  0  0  0  0
    0.1825  108.4948   22.8363 O   0  0  0  0  0  0  0  0  0  0  0  0
   -0.9983  107.3109   21.1758 C   0  0  0  0  0  0  0  0  0  0  0  0
    5.9625  108.6957   26.4664 N   0  0  0  0  0  0  0  0  0  0  0  0
    4.8483  108.6890   23.9231 C   0  0  0  0  0  0  0  0  0  0  0  0
   -0.7802  108.4341   19.1237 C   0  0  0  0  0  0  0  0  0  0  0  0
    2.5671  106.9925   23.3981 C   0  0  0  0  0  0  0  0  0  0  0  0
    1.2242  106.2533   23.6136 C   0  0  0  0  0  0  0  0  0  0  0  0
   -2.0523  107.8946   23.4238 C   0  0  0  0  0  0  0  0  0  0  0  0
    3.3817  106.8278   24.5744 C   0  0  0  0  0  0  0  0  0  0  0  0
    2.9567  106.0939   25.5124 O   0  0  0  0  0  0  0  0  0  0  0  0
   -3.6253  109.2774   22.3503 O   0  0  0  0  0  0  0  0  0  0  0  0
   -1.4362  107.5087   19.8998 O   0  0  0  0  0  0  0  0  0  0  0  0
   -3.3058  108.6055   23.4926 C   0  0  0  0  0  0  0  0  0  0  0  0
    0.2579  107.3551   23.5946 N   0  0  0  0  0  0  0  0  0  0  0  0
   -1.2171  108.3858   22.2338 C   0  0  0  0  0  0  0  0  0  0  0  0
  1  4  2  0
  1  7  1  0
  2  3  1  0
  2  7  2  0
  3  8  2  0
  3 13  1  0
  4  8  1  0
  5 18  1  0
  5 19  1  0
  6 16  1  0
  6 19  1  0
  9 16  1  0
 10 11  1  0
 10 13  1  0
 11 18  1  0
 12 17  1  0
 12 19  1  0
 13 14  2  0
 15 17  1  0
M  END
>  <ID>  (1) 
conformer_0

$$$$
