
     RDKit          3D

 40 43  0  0  0  0  0  0  0  0999 V2000
    2.1008  102.7298   23.8146 C   0  0  0  0  0  0  0  0  0  0  0  0
   -1.9643  108.3840   21.6787 C   0  0  0  0  0  0  0  0  0  0  0  0
   -2.8342  108.8981   20.7428 C   0  0  0  0  0  0  0  0  0  0  0  0
    1.1234  102.2850   28.7401 C   0  0  0  0  0  0  0  0  0  0  0  0
    5.0062  106.9173   26.1388 C   0  0  0  0  0  0  0  0  0  0  0  0
   -2.3978  106.7184   25.8846 C   0  0  0  0  0  0  0  0  0  0  0  0
   -1.9321  106.6281   27.2542 C   0  0  0  0  0  0  0  0  0  0  0  0
   -3.2047  107.8382   25.3285 C   0  0  0  0  0  0  0  0  0  0  0  0
    4.0327  106.0039   26.2286 C   0  0  0  0  0  0  0  0  0  0  0  0
    5.1563  107.6954   25.0065 C   0  0  0  0  0  0  0  0  0  0  0  0
    3.1250  105.8230   25.2240 C   0  0  0  0  0  0  0  0  0  0  0  0
    2.2535  104.6869   25.3666 N   0  0  0  0  0  0  0  0  0  0  0  0
   -1.7127  107.7458   25.2606 N   0  0  0  0  0  0  0  0  0  0  0  0
   -0.3443  107.9718   19.9631 C   0  0  0  0  0  0  0  0  0  0  0  0
    3.1518  106.7346   24.1215 C   0  0  0  0  0  0  0  0  0  0  0  0
    0.8038  104.1633   27.1587 C   0  0  0  0  0  0  0  0  0  0  0  0
    0.0162  104.0482   24.3648 N   0  0  0  0  0  0  0  0  0  0  0  0
   -3.4181  109.3067   18.3580 C   0  0  0  0  0  0  0  0  0  0  0  0
   -0.6989  107.8968   21.2590 C   0  0  0  0  0  0  0  0  0  0  0  0
    1.3988  103.9664   24.4804 C   0  0  0  0  0  0  0  0  0  0  0  0
   -0.9028  105.7808   27.7254 C   0  0  0  0  0  0  0  0  0  0  0  0
    0.1758  107.2744   22.0749 O   0  0  0  0  0  0  0  0  0  0  0  0
    6.4537  109.6610   25.2444 N   0  0  0  0  0  0  0  0  0  0  0  0
    2.0506  102.1708   29.5873 O   0  0  0  0  0  0  0  0  0  0  0  0
    6.9088  109.9087   23.9003 C   0  0  0  0  0  0  0  0  0  0  0  0
    1.1281  107.5068   22.9656 O   0  0  0  0  0  0  0  0  0  0  0  0
    4.1270  107.6828   24.0232 C   0  0  0  0  0  0  0  0  0  0  0  0
   -3.4526  108.5505   24.0368 C   0  0  0  0  0  0  0  0  0  0  0  0
    0.1083  105.3490   26.8987 N   0  0  0  0  0  0  0  0  0  0  0  0
    0.4240  103.6185   28.5074 C   0  0  0  0  0  0  0  0  0  0  0  0
   -2.4725  108.8850   19.3930 C   0  0  0  0  0  0  0  0  0  0  0  0
   -1.2689  107.8193   23.9844 C   0  0  0  0  0  0  0  0  0  0  0  0
    6.2533  110.9096   23.2890 N   0  0  0  0  0  0  0  0  0  0  0  0
    2.2551  104.0251   26.7545 C   0  0  0  0  0  0  0  0  0  0  0  0
   -1.2291  108.4378   19.0342 C   0  0  0  0  0  0  0  0  0  0  0  0
    8.0385  109.5400   23.4771 O   0  0  0  0  0  0  0  0  0  0  0  0
    6.4069  108.3893   24.8542 C   0  0  0  0  0  0  0  0  0  0  0  0
   -2.3926  108.2928   23.1343 C   0  0  0  0  0  0  0  0  0  0  0  0
    0.7576  101.3254   27.9258 O   0  0  0  0  0  0  0  0  0  0  0  0
    2.1866  106.6239   23.0462 C   0  0  0  0  0  0  0  0  0  0  0  0
  1 20  1  0
  2  3  2  0
  2 19  1  0
  2 38  1  0
  3 31  1  0
  4 24  2  0
  4 30  1  0
  4 39  1  0
  5  9  2  0
  5 10  1  0
  6  7  1  0
  6  8  1  0
  6 13  1  0
  7 21  1  0
  8 28  1  0
  9 11  1  0
 10 27  1  0
 10 37  1  0
 11 12  1  0
 11 15  1  0
 12 20  1  0
 12 34  1  0
 13 32  1  0
 14 19  2  0
 14 35  1  0
 15 27  2  0
 15 40  1  0
 16 29  1  0
 16 30  1  0
 16 34  1  0
 17 20  2  0
 18 31  1  0
 19 22  1  0
 21 29  1  0
 22 26  1  0
 23 25  1  0
 23 37  1  0
 25 33  1  0
 25 36  2  0
 26 40  1  0
 28 38  1  0
 31 35  2  0
 32 38  1  0
M  END
>  <ID>  (1) 
conformer_0

$$$$
