
     RDKit          3D

 27 31  0  0  0  0  0  0  0  0999 V2000
   -1.7409  108.3240   19.9133 C   0  0  0  0  0  0  0  0  0  0  0  0
    4.5754  107.0332   26.1449 C   0  0  0  0  0  0  0  0  0  0  0  0
   -0.8652  107.5104   21.9340 C   0  0  0  0  0  0  0  0  0  0  0  0
   -1.4580  105.4359   26.6036 O   0  0  0  0  0  0  0  0  0  0  0  0
   -1.5681  108.4694   18.4649 C   0  0  0  0  0  0  0  0  0  0  0  0
   -0.7153  106.1891   25.8352 C   0  0  0  0  0  0  0  0  0  0  0  0
    7.5999  109.4141   26.5553 C   0  0  0  0  0  0  0  0  0  0  0  0
   -2.9300  108.7500   20.5319 C   0  0  0  0  0  0  0  0  0  0  0  0
   -2.3997  106.8316   23.8018 C   0  0  0  0  0  0  0  0  0  0  0  0
    6.6629  109.3005   24.2511 C   0  0  0  0  0  0  0  0  0  0  0  0
    2.7055  106.4764   24.3132 C   0  0  0  0  0  0  0  0  0  0  0  0
    4.3272  108.3828   24.2725 C   0  0  0  0  0  0  0  0  0  0  0  0
    5.4893  108.8650   25.0132 C   0  0  0  0  0  0  0  0  0  0  0  0
    3.6795  107.3272   25.0470 C   0  0  0  0  0  0  0  0  0  0  0  0
    3.0068  106.3039   23.0219 O   0  0  0  0  0  0  0  0  0  0  0  0
    1.3648  106.4922   24.7308 N   0  0  0  0  0  0  0  0  0  0  0  0
   -1.0949  106.1827   24.3669 C   0  0  0  0  0  0  0  0  0  0  0  0
    0.2950  106.3010   23.7710 C   0  0  0  0  0  0  0  0  0  0  0  0
    0.3438  107.1513   22.6817 C   0  0  0  0  0  0  0  0  0  0  0  0
   -3.1224  108.4418   21.8884 C   0  0  0  0  0  0  0  0  0  0  0  0
    5.7437  107.8744   26.0689 C   0  0  0  0  0  0  0  0  0  0  0  0
    6.8265  108.1948   26.9960 C   0  0  0  0  0  0  0  0  0  0  0  0
   -4.5139  109.0058   22.6429 Cl  0  0  0  0  0  0  0  0  0  0  0  0
    7.9158  109.3243   25.0800 C   0  0  0  0  0  0  0  0  0  0  0  0
   -2.1391  107.6367   22.5444 C   0  0  0  0  0  0  0  0  0  0  0  0
   -0.6994  107.7615   20.5884 C   0  0  0  0  0  0  0  0  0  0  0  0
    0.7444  106.1351   26.0211 C   0  0  0  0  0  0  0  0  0  0  0  0
  1  5  1  0
  1  8  1  0
  1 26  2  0
  2 14  1  0
  2 21  1  0
  3 19  1  0
  3 25  1  0
  3 26  1  0
  4  6  1  0
  6 17  1  0
  6 27  1  0
  7 22  1  0
  7 24  1  0
  8 20  2  0
  9 17  1  0
  9 25  1  0
 10 13  1  0
 10 24  1  0
 11 14  1  0
 11 15  2  0
 11 16  1  0
 12 13  1  0
 12 14  1  0
 13 21  1  0
 16 18  1  0
 16 27  1  0
 17 18  1  0
 18 19  1  0
 20 23  1  0
 20 25  1  0
 21 22  1  0
M  END
>  <ID>  (1) 
conformer_0

$$$$
