
     RDKit          3D

 26 28  0  0  0  0  0  0  0  0999 V2000
    4.2660  108.1242   24.1103 C   0  0  0  0  0  0  0  0  0  0  0  0
    2.3543  106.4617   23.9683 C   0  0  0  0  0  0  0  0  0  0  0  0
    5.6115  107.7898   26.0300 C   0  0  0  0  0  0  0  0  0  0  0  0
   -2.0241  108.8341   22.1856 C   0  0  0  0  0  0  0  0  0  0  0  0
   -2.7317  108.9297   19.8923 C   0  0  0  0  0  0  0  0  0  0  0  0
    0.4808  107.1108   22.7649 C   0  0  0  0  0  0  0  0  0  0  0  0
   -0.5492  106.2822   23.2885 C   0  0  0  0  0  0  0  0  0  0  0  0
    0.2772  108.4247   22.5899 O   0  0  0  0  0  0  0  0  0  0  0  0
    3.6579  106.4430   25.7729 C   0  0  0  0  0  0  0  0  0  0  0  0
    0.8457  104.2099   26.8827 O   0  0  0  0  0  0  0  0  0  0  0  0
    1.7614  105.5737   24.8357 N   0  0  0  0  0  0  0  0  0  0  0  0
   -0.5209  108.1734   20.4479 C   0  0  0  0  0  0  0  0  0  0  0  0
    2.6392  105.4917   26.0802 C   0  0  0  0  0  0  0  0  0  0  0  0
    5.4135  108.4832   24.8635 C   0  0  0  0  0  0  0  0  0  0  0  0
    1.8156  106.7104   22.7948 N   0  0  0  0  0  0  0  0  0  0  0  0
    6.8755  110.1964   25.5699 O   0  0  0  0  0  0  0  0  0  0  0  0
   -1.5044  108.4608   19.5208 C   0  0  0  0  0  0  0  0  0  0  0  0
    6.9472  109.6411   23.4780 O   0  0  0  0  0  0  0  0  0  0  0  0
    2.4027  104.7488   28.2907 O   0  0  0  0  0  0  0  0  0  0  0  0
    4.7984  106.8065   26.4954 C   0  0  0  0  0  0  0  0  0  0  0  0
    6.4017  109.5335   24.5676 C   0  0  0  0  0  0  0  0  0  0  0  0
    3.4605  107.0777   24.5565 C   0  0  0  0  0  0  0  0  0  0  0  0
    1.9292  104.8059   27.1399 C   0  0  0  0  0  0  0  0  0  0  0  0
   -0.7888  108.4522   21.7398 C   0  0  0  0  0  0  0  0  0  0  0  0
   -1.2353  108.2529   18.2062 F   0  0  0  0  0  0  0  0  0  0  0  0
   -3.0276  109.0973   21.2291 C   0  0  0  0  0  0  0  0  0  0  0  0
  1 14  2  0
  1 22  1  0
  2 11  1  0
  2 15  1  0
  2 22  2  0
  3 14  1  0
  3 20  2  0
  4 24  2  0
  4 26  1  0
  5 17  1  0
  5 26  2  0
  6  7  1  0
  6  8  1  0
  6 15  1  0
  8 24  1  0
  9 13  1  0
  9 20  1  0
  9 22  1  0
 10 23  2  0
 11 13  1  0
 12 17  2  0
 12 24  1  0
 13 23  1  0
 14 21  1  0
 16 21  2  0
 17 25  1  0
 18 21  1  0
 19 23  1  0
M  END
>  <ID>  (1) 
conformer_0

$$$$
