
     RDKit          3D

 22 24  0  0  0  0  0  0  0  0999 V2000
   -2.8463  109.4780   18.6409 O   0  0  0  0  0  0  0  0  0  0  0  0
    0.5707  105.6949   24.3354 N   0  0  0  0  0  0  0  0  0  0  0  0
   -2.9009  109.0487   20.9670 C   0  0  0  0  0  0  0  0  0  0  0  0
    4.8371  108.9799   24.3904 C   0  0  0  0  0  0  0  0  0  0  0  0
    5.9290  108.8783   25.3063 C   0  0  0  0  0  0  0  0  0  0  0  0
   -1.1459  107.8188   22.0140 C   0  0  0  0  0  0  0  0  0  0  0  0
    3.9640  107.8839   24.4768 C   0  0  0  0  0  0  0  0  0  0  0  0
    7.2391  109.4569   25.0131 C   0  0  0  0  0  0  0  0  0  0  0  0
    2.7561  106.0336   24.8940 N   0  0  0  0  0  0  0  0  0  0  0  0
    2.8000  107.0488   23.9656 C   0  0  0  0  0  0  0  0  0  0  0  0
    7.8456  110.0812   26.0218 N   0  0  0  0  0  0  0  0  0  0  0  0
   -0.4607  107.7246   20.8019 C   0  0  0  0  0  0  0  0  0  0  0  0
    1.8347  107.1807   23.0910 N   0  0  0  0  0  0  0  0  0  0  0  0
   -0.6804  107.2463   23.2354 C   0  0  0  0  0  0  0  0  0  0  0  0
    4.3900  107.0969   25.6301 C   0  0  0  0  0  0  0  0  0  0  0  0
   -2.2577  108.9226   19.7411 C   0  0  0  0  0  0  0  0  0  0  0  0
    7.7793  109.4544   23.8590 O   0  0  0  0  0  0  0  0  0  0  0  0
    0.6091  106.5973   23.3117 C   0  0  0  0  0  0  0  0  0  0  0  0
   -2.3413  108.5157   22.0853 C   0  0  0  0  0  0  0  0  0  0  0  0
    5.4988  107.8594   26.2528 C   0  0  0  0  0  0  0  0  0  0  0  0
   -1.0203  108.2602   19.6674 C   0  0  0  0  0  0  0  0  0  0  0  0
    1.6917  105.1916   24.8961 C   0  0  0  0  0  0  0  0  0  0  0  0
  1 16  1  0
  2 18  2  0
  2 22  1  0
  3 16  2  0
  3 19  1  0
  4  5  1  0
  4  7  1  0
  5  8  1  0
  5 20  1  0
  6 12  1  0
  6 14  1  0
  6 19  2  0
  7 10  1  0
  7 15  1  0
  8 11  1  0
  8 17  2  0
  9 10  2  0
  9 22  1  0
 10 13  1  0
 12 21  2  0
 13 18  1  0
 14 18  1  0
 15 20  1  0
 16 21  1  0
M  END
>  <ID>  (1) 
conformer_0

$$$$
