
     RDKit          3D

 21 22  0  0  0  0  0  0  0  0999 V2000
    0.2243  107.1485   23.2843 N   0  0  0  0  0  0  0  0  0  0  0  0
    4.5521  108.0552   24.4377 C   0  0  0  0  0  0  0  0  0  0  0  0
   -1.2857  108.3438   19.1718 C   0  0  0  0  0  0  0  0  0  0  0  0
    2.3913  106.3712   24.6569 C   0  0  0  0  0  0  0  0  0  0  0  0
   -2.3911  108.2124   21.9196 C   0  0  0  0  0  0  0  0  0  0  0  0
    3.5338  108.1702   23.5491 C   0  0  0  0  0  0  0  0  0  0  0  0
    6.3474  110.9952   23.5845 O   0  0  0  0  0  1  0  0  0  0  0  0
    1.4909  107.3905   22.6958 O   0  0  0  0  0  0  0  0  0  0  0  0
    7.9827  109.2269   23.6334 O   0  0  0  0  0  1  0  0  0  0  0  0
    6.7737  109.7713   24.2790 S   0  0  0  0  0  4  0  0  0  0  0  0
    7.1110  110.0924   25.8024 N   0  0  0  0  0  0  0  0  0  0  0  0
    5.6518  108.7810   24.2911 N   0  0  0  0  0  0  0  0  0  0  0  0
   -0.7263  106.5118   22.4098 C   0  0  0  0  0  0  0  0  0  0  0  0
   -0.7659  107.6303   20.1472 C   0  0  0  0  0  0  0  0  0  0  0  0
    3.4349  106.2905   25.5475 C   0  0  0  0  0  0  0  0  0  0  0  0
   -1.2983  107.5202   21.4402 C   0  0  0  0  0  0  0  0  0  0  0  0
   -3.2434  109.0258   21.3609 C   0  0  0  0  0  0  0  0  0  0  0  0
    4.4940  107.1438   25.4467 C   0  0  0  0  0  0  0  0  0  0  0  0
    2.4710  107.2939   23.6446 C   0  0  0  0  0  0  0  0  0  0  0  0
   -3.2824  109.5153   20.0489 C   0  0  0  0  0  0  0  0  0  0  0  0
   -2.3595  109.1606   19.0493 C   0  0  0  0  0  0  0  0  0  0  0  0
  1  8  1  0
  1 13  1  0
  2  6  2  0
  2 12  1  0
  2 18  1  0
  3 14  2  0
  3 21  1  0
  4 15  1  0
  4 19  2  0
  5 16  1  0
  5 17  2  0
  6 19  1  0
  7 10  1  0
  8 19  1  0
  9 10  1  0
 10 11  1  0
 10 12  1  0
 13 16  1  0
 14 16  1  0
 15 18  2  0
 17 20  1  0
 20 21  2  0
M  END
>  <ID>  (1) 
conformer_0

$$$$
