
     RDKit          3D

 32 34  0  0  0  0  0  0  0  0999 V2000
    6.8655  106.4067   25.6002 O   0  0  0  0  0  0  0  0  0  0  0  0
    3.2307  106.8219   22.9392 O   0  0  0  0  0  0  0  0  0  0  0  0
    2.2596  105.4214   25.5123 C   0  0  0  0  0  0  0  0  0  0  0  0
    4.2915  108.3029   24.5582 C   0  0  0  0  0  0  0  0  0  0  0  0
   -4.3346  109.1339   22.2932 C   0  0  0  0  0  0  0  0  0  0  0  0
   -0.1723  106.0595   24.3595 C   0  0  0  0  0  0  0  0  0  0  0  0
   -1.8666  107.6365   20.8818 O   0  0  0  0  0  0  0  0  0  0  0  0
    6.4789  107.7081   25.7591 C   0  0  0  0  0  0  0  0  0  0  0  0
   -3.8130  107.7366   22.7293 C   0  0  0  0  0  0  0  0  0  0  0  0
    7.4505  108.7094   25.2365 C   0  0  0  0  0  0  0  0  0  0  0  0
    3.5671  106.1405   25.3238 C   0  0  0  0  0  0  0  0  0  0  0  0
   -2.0362  108.0255   19.5465 C   0  0  0  0  0  0  0  0  0  0  0  0
   -2.8344  107.5105   25.9910 O   0  0  0  0  0  0  0  0  0  0  0  0
    0.1828  106.7566   22.0943 O   0  0  0  0  0  0  0  0  0  0  0  0
    3.5538  107.0538   24.1600 C   0  0  0  0  0  0  0  0  0  0  0  0
    0.2402  108.0420   20.1106 O   0  0  0  0  0  0  0  0  0  0  0  0
    4.1261  106.9450   26.4580 C   0  0  0  0  0  0  0  0  0  0  0  0
    5.0355  108.0490   25.8528 C   0  0  0  0  0  0  0  0  0  0  0  0
    7.5949  109.7687   26.3076 C   0  0  0  0  0  0  0  0  0  0  0  0
   -2.5722  107.9955   23.5983 N   0  0  0  0  0  0  0  0  0  0  0  0
   -4.6042  107.5976   24.2907 C   0  0  0  0  0  0  0  0  0  0  0  0
   -5.5617  108.2900   24.9951 O   0  0  0  0  0  0  0  0  0  0  0  0
   -1.1661  108.2281   23.4955 C   0  0  0  0  0  0  0  0  0  0  0  0
   -3.2543  108.8408   19.2460 C   0  0  0  0  0  0  0  0  0  0  0  0
    1.2589  105.5528   24.4316 C   0  0  0  0  0  0  0  0  0  0  0  0
   -0.7371  108.3158   18.9924 C   0  0  0  0  0  0  0  0  0  0  0  0
   -0.6828  109.3789   23.3448 O   0  0  0  0  0  0  0  0  0  0  0  0
   -3.2293  108.0341   24.9009 C   0  0  0  0  0  0  0  0  0  0  0  0
   -0.3050  107.0866   23.3547 C   0  0  0  0  0  0  0  0  0  0  0  0
    1.7177  105.5577   26.8038 O   0  0  0  0  0  0  0  0  0  0  0  0
   -0.5340  107.4784   21.1466 C   0  0  0  0  0  0  0  0  0  0  0  0
    0.3425  105.5515   27.1242 C   0  0  0  0  0  0  0  0  0  0  0  0
  1  8  1  0
  2 15  2  0
  3 11  1  0
  3 25  1  0
  3 30  1  0
  4 15  1  0
  4 18  1  0
  5  9  1  0
  6 25  1  0
  6 29  1  0
  7 12  1  0
  7 31  1  0
  8 10  1  0
  8 18  1  0
  9 20  1  0
  9 21  1  0
 10 19  1  0
 11 15  1  0
 11 17  1  0
 12 24  1  0
 12 26  1  0
 13 28  1  0
 14 29  1  0
 14 31  1  0
 16 26  1  0
 16 31  1  0
 17 18  1  0
 20 23  1  0
 20 28  1  0
 21 22  1  0
 21 28  1  0
 23 27  2  0
 23 29  1  0
 30 32  1  0
M  END
>  <ID>  (1) 
conformer_0

$$$$
