
     RDKit          3D

 26 28  0  0  0  0  0  0  0  0999 V2000
   -2.0316  106.5554   25.8716 C   0  0  0  0  0  0  0  0  0  0  0  0
    2.1719  106.5180   23.4035 C   0  0  0  0  0  0  0  0  0  0  0  0
   -0.0536  107.5373   21.5531 C   0  0  0  0  0  0  0  0  0  0  0  0
   -0.0956  107.3183   22.9164 C   0  0  0  0  0  0  0  0  0  0  0  0
    7.1767  108.9948   25.8091 C   0  0  0  0  0  0  0  0  0  0  0  0
   -1.8951  108.6883   18.6247 F   0  0  0  0  0  0  0  0  0  0  0  0
   -1.0093  106.7853   25.0173 O   0  0  0  0  0  0  0  0  0  0  0  0
   -3.5149  107.7508   24.3907 O   0  0  0  0  0  0  0  0  0  0  0  0
    0.3064  108.5048   18.8112 F   0  0  0  0  0  0  0  0  0  0  0  0
    6.0455  109.3421   24.9141 C   0  0  0  0  0  0  0  0  0  0  0  0
    3.1840  107.1726   24.1750 C   0  0  0  0  0  0  0  0  0  0  0  0
   -0.8534  108.2929   19.3286 C   0  0  0  0  0  0  0  0  0  0  0  0
    3.5310  106.7555   25.4173 C   0  0  0  0  0  0  0  0  0  0  0  0
    4.9443  108.4164   24.8334 C   0  0  0  0  0  0  0  0  0  0  0  0
    7.0468  109.6721   27.1050 O   0  0  0  0  0  0  0  0  0  0  0  0
   -2.8435  108.5578   22.3734 C   0  0  0  0  0  0  0  0  0  0  0  0
    2.4755  105.5537   22.7180 O   0  0  0  0  0  0  0  0  0  0  0  0
   -1.0326  108.0911   20.7701 C   0  0  0  0  0  0  0  0  0  0  0  0
    4.6344  107.5038   25.7868 C   0  0  0  0  0  0  0  0  0  0  0  0
   -1.2247  107.3838   23.7657 C   0  0  0  0  0  0  0  0  0  0  0  0
   -2.4715  107.8994   23.4778 C   0  0  0  0  0  0  0  0  0  0  0  0
    3.9778  108.2306   23.7876 C   0  0  0  0  0  0  0  0  0  0  0  0
    0.9695  106.9457   23.6586 N   0  0  0  0  0  0  0  0  0  0  0  0
   -2.2243  108.5700   21.2263 C   0  0  0  0  0  0  0  0  0  0  0  0
   -3.2892  107.4080   25.7057 C   0  0  0  0  0  0  0  0  0  0  0  0
    6.0176  110.4986   24.4268 O   0  0  0  0  0  0  0  0  0  0  0  0
  1  7  1  0
  1 25  1  0
  2 11  1  0
  2 17  2  0
  2 23  1  0
  3  4  1  0
  3 18  2  0
  4 20  1  0
  4 23  2  3
  5 10  1  0
  5 15  1  0
  6 12  1  0
  7 20  1  0
  8 21  1  0
  8 25  1  0
  9 12  1  0
 10 14  1  0
 10 26  2  0
 11 13  1  0
 11 22  1  0
 12 18  1  0
 13 19  1  0
 14 19  1  0
 14 22  1  0
 16 21  1  0
 16 24  2  0
 18 24  1  0
 20 21  2  0
M  END
>  <ID>  (1) 
conformer_0

$$$$
