
     RDKit          3D

 32 37  0  0  0  0  0  0  0  0999 V2000
    5.6088  107.7168   26.4536 C   0  0  0  0  0  0  0  0  0  0  0  0
    5.2999  108.2345   24.2134 O   0  0  0  0  0  0  0  0  0  0  0  0
   -3.1128  108.5746   22.7041 O   0  0  0  0  0  0  0  0  0  0  0  0
    6.8843  108.3921   26.0063 C   0  0  0  0  0  0  0  0  0  0  0  0
   -1.2106  108.2899   19.6630 C   0  0  0  0  0  0  0  0  0  0  0  0
   -2.3647  108.9451   18.7313 C   0  0  0  0  0  0  0  0  0  0  0  0
    5.4665  106.8577   27.5529 C   0  0  0  0  0  0  0  0  0  0  0  0
    7.6262  109.0498   23.7334 O   0  0  0  0  0  0  0  0  0  0  0  0
   -0.2453  104.3383   25.0677 N   0  0  0  0  0  0  0  0  0  0  0  0
   -3.1013  109.1614   20.0492 C   0  0  0  0  0  0  0  0  0  0  0  0
    4.7893  107.4759   25.2976 C   0  0  0  0  0  0  0  0  0  0  0  0
    2.1014  105.0774   26.2714 C   0  0  0  0  0  0  0  0  0  0  0  0
   -0.2082  105.7976   23.2159 C   0  0  0  0  0  0  0  0  0  0  0  0
    7.7094  108.2143   27.2015 O   0  0  0  0  0  0  0  0  0  0  0  0
    6.0753  107.3855   28.7830 C   0  0  0  0  0  0  0  0  0  0  0  0
   -1.5773  107.4221   24.3992 C   0  0  0  0  0  0  0  0  0  0  0  0
    6.5155  109.1004   24.5935 C   0  0  0  0  0  0  0  0  0  0  0  0
   -0.9835  107.1755   22.9436 C   0  0  0  0  0  0  0  0  0  0  0  0
   -2.0789  108.2622   20.7979 N   0  0  0  0  0  0  0  0  0  0  0  0
    6.2798  110.4239   24.8638 O   0  0  0  0  0  0  0  0  0  0  0  0
    0.2118  107.9679   22.3038 C   0  0  0  0  0  0  0  0  0  0  0  0
    3.3720  105.7645   26.6273 C   0  0  0  0  0  0  0  0  0  0  0  0
    6.9796  108.5335   28.4334 C   0  0  0  0  0  0  0  0  0  0  0  0
    3.0210  106.5406   23.2082 N   0  0  0  0  0  0  0  0  0  0  0  0
    3.7586  106.4961   25.4791 C   0  0  0  0  0  0  0  0  0  0  0  0
    1.3545  104.1165   26.7655 N   0  0  0  0  0  0  0  0  0  0  0  0
    2.7462  106.3220   24.4799 C   0  0  0  0  0  0  0  0  0  0  0  0
    0.1574  103.8724   26.2377 C   0  0  0  0  0  0  0  0  0  0  0  0
    0.3840  105.3755   24.5234 C   0  0  0  0  0  0  0  0  0  0  0  0
   -2.2121  108.0159   22.1084 C   0  0  0  0  0  0  0  0  0  0  0  0
    4.3041  106.0129   27.6613 C   0  0  0  0  0  0  0  0  0  0  0  0
    1.6989  105.5038   24.9873 C   0  0  0  0  0  0  0  0  0  0  0  0
  1  4  1  0
  1  7  1  0
  1 11  2  0
  2 11  1  0
  2 17  1  0
  3 30  2  0
  4 14  1  0
  4 17  1  0
  5  6  1  0
  5 19  1  0
  6 10  1  0
  7 15  1  0
  7 31  1  0
  8 17  1  0
  9 28  1  0
  9 29  1  0
 10 19  1  0
 11 25  1  0
 12 22  1  0
 12 26  1  0
 12 32  1  0
 13 18  1  0
 13 29  1  0
 14 23  1  0
 15 23  1  0
 16 18  1  0
 17 20  1  0
 18 21  1  0
 18 30  1  0
 19 30  1  0
 22 25  1  0
 22 31  2  0
 24 27  2  0
 25 27  1  0
 26 28  2  0
 27 32  1  0
 29 32  1  0
M  END
>  <ID>  (1) 
conformer_0

$$$$
