
     RDKit          3D

 24 25  0  0  0  0  0  0  0  0999 V2000
    2.2655  105.6095   23.5751 C   0  0  0  0  0  0  0  0  0  0  0  0
   -2.7432  109.3748   20.7641 C   0  0  0  0  0  0  0  0  0  0  0  0
    5.6741  110.9757   24.7820 F   0  0  0  0  0  0  0  0  0  0  0  0
    1.1068  106.1289   23.3904 C   0  0  0  0  0  0  0  0  0  0  0  0
    2.6456  104.4259   23.1039 O   0  0  0  0  0  0  0  0  0  0  0  0
    3.2357  106.5376   24.1804 C   0  0  0  0  0  0  0  0  0  0  0  0
    7.8493  110.6712   25.3185 F   0  0  0  0  0  0  0  0  0  0  0  0
    6.6038  108.6933   25.4014 C   0  0  0  0  0  0  0  0  0  0  0  0
   -0.8457  108.5996   21.8873 N   0  0  0  0  0  0  0  0  0  0  0  0
    6.7990  110.1185   24.6753 C   0  0  0  0  0  0  0  0  0  0  0  0
    5.3587  108.0107   25.0688 C   0  0  0  0  0  0  0  0  0  0  0  0
    4.0396  106.0214   25.1694 C   0  0  0  0  0  0  0  0  0  0  0  0
   -1.5768  108.6282   20.7017 C   0  0  0  0  0  0  0  0  0  0  0  0
   -1.1185  108.0259   19.5904 N   0  0  0  0  0  0  0  0  0  0  0  0
   -2.8769  109.1246   18.4082 C   0  0  0  0  0  0  0  0  0  0  0  0
   -0.8031  106.3501   21.7646 O   0  0  0  0  0  0  0  0  0  0  0  0
   -3.4153  109.6289   19.5773 C   0  0  0  0  0  0  0  0  0  0  0  0
   -0.3471  107.4031   22.2530 C   0  0  0  0  0  0  0  0  0  0  0  0
    3.3456  107.8301   23.7593 C   0  0  0  0  0  0  0  0  0  0  0  0
    0.6506  107.3056   23.2078 C   0  0  0  0  0  0  0  0  0  0  0  0
    7.0856  109.8964   23.3658 F   0  0  0  0  0  0  0  0  0  0  0  0
   -1.7458  108.3488   18.4134 C   0  0  0  0  0  0  0  0  0  0  0  0
    5.0777  106.7727   25.6905 C   0  0  0  0  0  0  0  0  0  0  0  0
    4.4656  108.5597   24.1676 C   0  0  0  0  0  0  0  0  0  0  0  0
  1  4  1  0
  1  5  1  0
  1  6  1  0
  2 13  2  0
  2 17  1  0
  3 10  1  0
  4 20  1  0
  6 12  2  0
  6 19  1  0
  7 10  1  0
  8 10  1  0
  8 11  1  0
  9 13  1  0
  9 18  1  0
 10 21  1  0
 11 23  2  0
 11 24  1  0
 12 23  1  0
 13 14  1  0
 14 22  2  0
 15 17  2  0
 15 22  1  0
 16 18  2  0
 18 20  1  0
 19 24  2  0
M  END
>  <ID>  (1) 
conformer_0

$$$$
