
     RDKit          3D

 23 25  0  0  0  0  0  0  0  0999 V2000
    3.9168  106.1513   25.8424 N   0  0  0  0  0  0  0  0  0  0  0  0
   -2.3685  109.1084   19.0444 C   0  0  0  0  0  0  0  0  0  0  0  0
    4.7565  108.0791   25.0613 C   0  0  0  0  0  0  0  0  0  0  0  0
    0.8908  106.0428   23.7592 N   0  0  0  0  0  0  0  0  0  0  0  0
    5.8213  109.9548   23.6723 C   0  0  0  0  0  0  0  0  0  0  0  0
   -0.5662  107.9696   20.3495 C   0  0  0  0  0  0  0  0  0  0  0  0
    7.6573  110.3303   27.0779 N   0  0  0  0  0  0  0  0  0  0  0  0
   -0.0209  107.4677   21.5024 C   0  0  0  0  0  0  0  0  0  0  0  0
    7.0991  108.7631   25.3088 C   0  0  0  0  0  0  0  0  0  0  0  0
    7.0773  110.4295   23.2583 O   0  0  0  0  0  0  0  0  0  0  0  0
    3.1200  106.5172   24.7860 C   0  0  0  0  0  0  0  0  0  0  0  0
    5.7983  108.9815   24.6677 C   0  0  0  0  0  0  0  0  0  0  0  0
    4.8792  107.1115   26.0976 C   0  0  0  0  0  3  0  0  0  0  0  0
    3.6558  107.7374   24.2931 C   0  0  0  0  0  0  0  0  0  0  0  0
    6.5730  108.1716   27.7614 C   0  0  0  0  0  0  0  0  0  0  0  0
   -0.8246  107.4612   22.6618 C   0  0  0  0  0  0  0  0  0  0  0  0
   -2.0836  108.0255   22.6274 C   0  0  0  0  0  0  0  0  0  0  0  0
   -2.5994  108.5875   21.4630 C   0  0  0  0  0  0  0  0  0  0  0  0
    7.0847  109.0759   26.7382 C   0  0  0  0  0  0  0  0  0  0  0  0
   -0.3134  106.8413   23.9126 C   0  0  0  0  0  0  0  0  0  0  0  0
    1.8156  106.1779   24.7042 N   0  0  0  0  0  0  0  0  0  0  0  0
   -1.8095  108.5118   20.3171 C   0  0  0  0  0  0  0  0  0  0  0  0
    5.5582  107.2243   27.3243 N   0  0  0  0  0  0  0  0  0  0  0  0
  1 11  2  0
  1 13  1  0
  2 22  1  0
  3 12  1  0
  3 13  1  0
  3 14  1  0
  4 20  1  0
  4 21  1  0
  5 10  1  0
  5 12  2  3
  6  8  2  0
  6 22  1  0
  7 19  1  0
  8 16  1  0
  9 12  1  0
  9 19  1  0
 11 14  1  0
 11 21  1  0
 13 23  1  0
 15 19  1  0
 15 23  2  0
 16 17  2  0
 16 20  1  0
 17 18  1  0
 18 22  2  0
M  END
>  <ID>  (1) 
conformer_0

$$$$
