
     RDKit          3D

 30 31  0  0  0  0  0  0  0  0999 V2000
    5.2167  108.5292   24.5403 C   0  0  0  0  0  0  0  0  0  0  0  0
    2.0434  104.1936   24.7647 C   0  0  0  0  0  0  0  0  0  0  0  0
   -1.5898  108.4781   19.3304 C   0  0  0  0  0  0  0  0  0  0  0  0
    7.4745  109.1256   23.6196 O   0  0  0  0  0  0  0  0  0  0  0  0
    6.3535  109.6958   24.1675 C   0  0  0  0  0  0  0  0  0  0  0  0
    4.0425  108.0545   23.8626 C   0  0  0  0  0  0  0  0  0  0  0  0
    5.8527  110.6762   23.3557 O   0  0  0  0  0  0  0  0  0  0  0  0
    6.7239  110.2651   25.4851 N   0  0  0  0  0  0  0  0  0  0  0  0
    1.8232  104.0935   27.5795 O   0  0  0  0  0  0  0  0  0  0  0  0
    3.6264  106.5887   25.7745 C   0  0  0  0  0  0  0  0  0  0  0  0
    2.0401  106.6178   23.7615 C   0  0  0  0  0  0  0  0  0  0  0  0
    0.9317  104.7190   26.8754 C   0  0  0  0  0  0  0  0  0  0  0  0
   -0.2904  104.8494   27.1945 O   0  0  0  0  0  0  0  0  0  0  0  0
    1.3289  104.6305   22.0342 O   0  0  0  0  0  0  0  0  0  0  0  0
    5.4978  107.9861   25.7636 C   0  0  0  0  0  0  0  0  0  0  0  0
    1.3379  105.2608   25.6045 N   0  0  0  0  0  0  0  0  0  0  0  0
   -0.1811  106.9466   23.9325 N   0  0  0  0  0  0  0  0  0  0  0  0
   -0.7967  107.6276   21.6176 C   0  0  0  0  0  0  0  0  0  0  0  0
    4.7477  107.0315   26.4003 C   0  0  0  0  0  0  0  0  0  0  0  0
   -2.4781  109.0381   18.5832 O   0  0  0  0  0  0  0  0  0  0  0  0
    0.8766  106.3855   24.6681 C   0  0  0  0  0  0  0  0  0  0  0  0
   -2.2332  107.7988   23.5741 C   0  0  0  0  0  0  0  0  0  0  0  0
    3.2571  107.0552   24.5041 C   0  0  0  0  0  0  0  0  0  0  0  0
   -3.0606  108.4214   21.4328 C   0  0  0  0  0  0  0  0  0  0  0  0
   -1.7905  108.1447   20.8112 C   0  0  0  0  0  0  0  0  0  0  0  0
    1.3112  104.0758   23.3945 C   0  0  0  0  0  0  0  0  0  0  0  0
   -1.0345  107.4448   23.0100 C   0  0  0  0  0  0  0  0  0  0  0  0
   -0.3050  108.3142   18.8250 N   0  0  0  0  0  0  0  0  0  0  0  0
   -3.2252  108.3014   22.7764 C   0  0  0  0  0  0  0  0  0  0  0  0
   -4.5432  108.8925   20.6094 Cl  0  0  0  0  0  0  0  0  0  0  0  0
  1  5  1  0
  1  6  2  0
  1 15  1  0
  2 16  1  0
  2 26  1  0
  3 20  2  0
  3 25  1  0
  3 28  1  0
  4  5  1  0
  5  7  1  0
  5  8  1  0
  6 23  1  0
  9 12  2  0
 10 19  1  0
 10 23  2  0
 11 21  1  0
 11 23  1  0
 12 13  1  0
 12 16  1  0
 14 26  1  0
 15 19  2  0
 16 21  1  0
 17 21  2  3
 17 27  1  0
 18 25  2  0
 18 27  1  0
 22 27  2  0
 22 29  1  0
 24 25  1  0
 24 29  2  0
 24 30  1  0
M  END
>  <ID>  (1) 
conformer_0

$$$$
