
     RDKit          3D

 19 20  0  0  0  0  0  0  0  0999 V2000
    6.6638  109.7618   24.5853 O   0  0  0  0  0  0  0  0  0  0  0  0
    3.7887  107.7055   24.6744 C   0  0  0  0  0  0  0  0  0  0  0  0
   -1.7445  108.3904   20.6986 C   0  0  0  0  0  0  0  0  0  0  0  0
   -1.5223  108.4132   18.3358 C   0  0  0  0  0  0  0  0  0  0  0  0
   -2.2269  108.6889   21.9651 C   0  0  0  0  0  0  0  0  0  0  0  0
   -0.2991  107.6570   22.8668 C   0  0  0  0  0  0  0  0  0  0  0  0
    5.6685  107.9539   25.8496 C   0  0  0  0  0  0  0  0  0  0  0  0
    2.5968  107.3259   24.3915 N   0  0  0  0  0  0  0  0  0  0  0  0
    4.4823  107.2212   25.7485 C   0  0  0  0  0  0  0  0  0  0  0  0
   -2.3789  108.9934   19.4534 C   0  0  0  0  0  0  0  0  0  0  0  0
    1.7172  106.7466   23.6231 C   0  0  0  0  0  0  0  0  0  0  0  0
    4.5253  108.7046   24.0609 C   0  0  0  0  0  0  0  0  0  0  0  0
   -1.4752  108.2935   23.0758 C   0  0  0  0  0  0  0  0  0  0  0  0
    0.1061  107.2494   21.6466 N   0  0  0  0  0  0  0  0  0  0  0  0
    0.5316  107.4275   23.9481 N   0  0  0  0  0  0  0  0  0  0  0  0
   -0.6104  107.6181   20.5902 C   0  0  0  0  0  0  0  0  0  0  0  0
    7.8257  109.5982   25.4416 C   0  0  0  0  0  0  0  0  0  0  0  0
    5.7105  108.8972   24.8150 C   0  0  0  0  0  0  0  0  0  0  0  0
    1.9228  105.7606   22.8961 O   0  0  0  0  0  0  0  0  0  0  0  0
  1 17  1  0
  1 18  1  0
  2  8  1  0
  2  9  1  0
  2 12  1  0
  3  5  2  0
  3 10  1  0
  3 16  1  0
  4 10  1  0
  5 13  1  0
  6 13  2  0
  6 14  1  0
  6 15  1  0
  7  9  1  0
  7 18  1  0
  8 11  1  0
 11 15  1  0
 11 19  2  0
 12 18  1  0
 14 16  2  0
M  END
>  <ID>  (1) 
conformer_0

$$$$
