
     RDKit          3D

 25 25  0  0  0  0  0  0  0  0999 V2000
   -0.7854  108.0356   20.4600 C   0  0  0  0  0  0  0  0  0  0  0  0
   -0.7192  106.8477   23.7421 C   0  0  0  0  0  0  0  0  0  0  0  0
   -0.4399  108.2022   23.5169 O   0  0  0  0  0  0  0  0  0  0  0  0
   -0.1378  106.3052   24.8978 N   0  0  0  0  0  0  0  0  0  0  0  0
    1.0529  105.4693   24.7238 C   0  0  0  0  0  0  0  0  0  0  0  0
    2.3305  106.9372   23.1375 O   0  0  0  0  0  0  0  0  0  0  0  0
    4.4670  107.0871   24.7807 N   0  0  0  0  0  0  0  0  0  0  0  0
   -1.4371  108.8466   22.7616 C   0  0  0  0  0  0  0  0  0  0  0  0
   -3.1345  109.2233   19.4874 C   0  0  0  0  0  0  0  0  0  0  0  0
    6.3303  110.8836   24.4718 O   0  0  0  0  0  0  0  0  0  0  0  0
   -1.3310  106.0866   22.9224 O   0  0  0  0  0  0  0  0  0  0  0  0
    1.1329  104.3372   25.7420 C   0  0  0  0  0  0  0  0  0  0  0  0
    3.7625  105.4103   26.0985 O   0  0  0  0  0  0  0  0  0  0  0  0
    2.2980  106.1741   24.3123 C   0  0  0  0  0  0  0  0  0  0  0  0
    4.8316  108.4155   25.1133 C   0  0  0  0  0  0  0  0  0  0  0  0
    4.6751  108.7309   26.5278 C   0  0  0  0  0  0  0  0  0  0  0  0
    3.4946  106.2130   25.1494 C   0  0  0  0  0  0  0  0  0  0  0  0
   -2.1857  108.6876   18.6235 C   0  0  0  0  0  0  0  0  0  0  0  0
   -1.0479  108.0551   19.0983 C   0  0  0  0  0  0  0  0  0  0  0  0
    8.0077  109.6388   23.6545 O   0  0  0  0  0  0  0  0  0  0  0  0
   -1.1356  105.6344   25.8487 C   0  0  0  0  0  0  0  0  0  0  0  0
   -2.9012  109.1473   20.8600 C   0  0  0  0  0  0  0  0  0  0  0  0
   -1.6787  108.6291   21.3546 C   0  0  0  0  0  0  0  0  0  0  0  0
    6.8363  109.7697   24.2744 C   0  0  0  0  0  0  0  0  0  0  0  0
    6.1738  108.5517   24.5711 C   0  0  0  0  0  0  0  0  0  0  0  0
  1 19  2  0
  1 23  1  0
  2  3  1  0
  2  4  1  0
  2 11  2  0
  3  8  1  0
  4  5  1  0
  4 21  1  0
  5 12  1  0
  5 14  1  0
  6 14  1  0
  7 15  1  0
  7 17  1  0
  8 23  1  0
  9 18  2  0
  9 22  1  0
 10 24  2  0
 13 17  2  0
 14 17  1  0
 15 16  1  0
 15 25  1  0
 18 19  1  0
 20 24  1  0
 22 23  2  0
 24 25  1  0
M  END
>  <ID>  (1) 
conformer_0

$$$$
