
     RDKit          3D

 24 26  0  0  0  0  0  0  0  0999 V2000
   -0.0133  106.5337   22.3010 C   0  0  0  0  0  0  0  0  0  0  0  0
    4.1415  106.7277   25.5888 C   0  0  0  0  0  0  0  0  0  0  0  0
   -2.9472  108.9984   20.7174 C   0  0  0  0  0  0  0  0  0  0  0  0
   -2.0090  108.4048   19.9434 C   0  0  0  0  0  0  0  0  0  0  0  0
   -0.9988  107.4080   21.7749 C   0  0  0  0  0  0  0  0  0  0  0  0
    6.3755  110.8013   24.0196 O   0  0  0  0  0  0  0  0  0  0  0  0
    2.0182  106.1767   23.2744 C   0  0  0  0  0  0  0  0  0  0  0  0
    6.6105  109.5585   24.6594 C   0  0  0  0  0  0  0  0  0  0  0  0
   -2.9230  108.7784   22.1013 C   0  0  0  0  0  0  0  0  0  0  0  0
    1.0315  107.0565   22.9908 C   0  0  0  0  0  0  0  0  0  0  0  0
    3.2339  107.5329   24.6332 C   0  0  0  0  0  0  0  0  0  0  0  0
   -2.1023  108.6650   18.2819 Cl  0  0  0  0  0  0  0  0  0  0  0  0
   -1.9244  107.9891   22.6237 C   0  0  0  0  0  0  0  0  0  0  0  0
    0.7244  104.3253   22.6787 C   0  0  0  0  0  0  0  0  0  0  0  0
    5.7578  107.6642   27.2408 C   0  0  0  0  0  0  0  0  0  0  0  0
    7.0492  109.5858   26.1721 O   0  0  0  0  0  0  0  0  0  0  0  0
    1.8325  104.8156   23.3222 C   0  0  0  0  0  0  0  0  0  0  0  0
    6.7391  108.8055   27.4502 C   0  0  0  0  0  0  0  0  0  0  0  0
    3.2801  106.7671   23.3954 O   0  0  0  0  0  0  0  0  0  0  0  0
   -1.0189  107.6133   20.4124 C   0  0  0  0  0  0  0  0  0  0  0  0
    5.1879  108.8160   24.8205 C   0  0  0  0  0  0  0  0  0  0  0  0
    7.5715  108.8726   23.8996 O   0  0  0  0  0  0  0  0  0  0  0  0
    5.1603  107.7734   25.9105 C   0  0  0  0  0  0  0  0  0  0  0  0
   -0.1717  105.1890   22.1233 N   0  0  0  0  0  0  0  0  0  0  0  0
  1  5  1  0
  1 10  1  0
  1 24  2  0
  2 11  1  0
  2 23  1  0
  3  4  2  0
  3  9  1  0
  4 12  1  0
  4 20  1  0
  5 13  1  0
  5 20  2  0
  6  8  1  0
  7 10  1  0
  7 17  1  0
  7 19  1  0
  8 16  1  0
  8 21  1  0
  8 22  1  0
  9 13  2  0
 11 19  1  0
 14 17  2  0
 14 24  1  0
 15 18  1  0
 15 23  1  0
 16 18  1  0
 21 23  1  0
M  END
>  <ID>  (1) 
conformer_0

$$$$
