
     RDKit          3D

 30 33  0  0  0  0  0  0  0  0999 V2000
    6.8908  109.9373   23.5916 C   0  0  0  0  0  0  0  0  0  0  0  0
    5.3990  107.8527   27.0242 C   0  0  0  0  0  0  0  0  0  0  0  0
    1.3821  103.8641   24.1409 C   0  0  0  0  0  0  0  0  0  0  0  0
    3.6190  105.8967   26.1563 C   0  0  0  0  0  0  0  0  0  0  0  0
    2.6078  105.0507   25.7886 C   0  0  0  0  0  0  0  0  0  0  0  0
    1.5058  102.9664   25.4410 C   0  0  0  0  0  0  0  0  0  0  0  0
    6.9424  110.0168   25.8549 O   0  0  0  0  0  0  0  0  0  0  0  0
   -1.1336  108.1907   21.8526 C   0  0  0  0  0  0  0  0  0  0  0  0
    5.6068  108.4776   24.7335 N   0  0  0  0  0  0  0  0  0  0  0  0
    1.9422  103.1122   23.0327 C   0  0  0  0  0  0  0  0  0  0  0  0
    6.5239  109.5059   24.8263 C   0  0  0  0  0  0  0  0  0  0  0  0
    3.9209  106.9689   25.3468 C   0  0  0  0  0  0  0  0  0  0  0  0
    3.0553  107.2698   24.2712 C   0  0  0  0  0  0  0  0  0  0  0  0
   -1.8054  108.6155   19.4315 C   0  0  0  0  0  0  0  0  0  0  0  0
   -0.1748  107.0031   24.0327 O   0  0  0  0  0  0  0  0  0  0  0  0
   -0.0557  107.3668   21.2963 N   0  0  0  0  0  0  0  0  0  0  0  0
    2.4535  101.9318   23.5503 N   0  0  0  0  0  0  0  0  0  0  0  0
   -2.9987  109.2068   18.7036 C   0  0  0  0  0  0  0  0  0  0  0  0
    2.5282  101.9160   25.0396 C   0  0  0  0  0  0  0  0  0  0  0  0
    1.0985  107.5326   22.0906 O   0  0  0  0  0  0  0  0  0  0  0  0
   -3.4389  108.9841   21.1129 C   0  0  0  0  0  0  0  0  0  0  0  0
    2.1347  103.8922   26.5026 N   0  0  0  0  0  0  0  0  0  0  0  0
   -0.9010  107.9025   18.7920 O   0  0  0  0  0  0  0  0  0  0  0  0
    1.9527  105.1577   24.5818 C   0  0  0  0  0  0  0  0  0  0  0  0
   -4.0788  109.3371   19.7498 C   0  0  0  0  0  0  0  0  0  0  0  0
    1.9781  106.4753   24.0194 C   0  0  0  0  0  0  0  0  0  0  0  0
    5.0677  107.7999   25.6837 C   0  0  0  0  0  0  0  0  0  0  0  0
    0.8401  107.0321   23.3261 C   0  0  0  0  0  0  0  0  0  0  0  0
   -2.0323  108.6449   20.8517 C   0  0  0  0  0  0  0  0  0  0  0  0
    2.0870  103.5411   21.8832 O   0  0  0  0  0  0  0  0  0  0  0  0
  1 11  1  0
  2 27  1  0
  3  6  1  0
  3 10  1  0
  3 24  1  0
  4  5  2  0
  4 12  1  0
  5 22  1  0
  5 24  1  0
  6 19  1  0
  6 22  1  0
  7 11  2  0
  8 16  1  0
  8 29  1  0
  9 11  1  0
  9 27  2  3
 10 17  1  0
 10 30  2  0
 12 13  2  0
 12 27  1  0
 13 26  1  0
 14 18  1  0
 14 23  1  0
 14 29  1  0
 15 28  2  0
 16 20  1  0
 17 19  1  0
 18 25  1  0
 20 28  1  0
 21 25  1  0
 21 29  1  0
 24 26  1  0
 26 28  1  0
M  END
>  <ID>  (1) 
conformer_0

$$$$
