
     RDKit          3D

 31 36  0  0  0  0  0  0  0  0999 V2000
   -1.8200  107.2476   23.6674 C   0  0  0  0  0  0  0  0  0  0  0  0
    5.2974  107.6516   25.5351 C   0  0  0  0  0  0  0  0  0  0  0  0
   -3.0110  109.2863   19.4633 C   0  0  0  0  0  0  0  0  0  0  0  0
    2.1161  105.8518   25.0922 C   0  0  0  0  0  0  0  0  0  0  0  0
   -1.1224  108.0926   20.3813 C   0  0  0  0  0  0  0  0  0  0  0  0
    7.8559  108.9826   23.9258 O   0  0  0  0  0  1  0  0  0  0  0  0
    0.0067  103.9777   26.9276 C   0  0  0  0  0  0  0  0  0  0  0  0
   -3.6280  109.4000   20.7040 C   0  0  0  0  0  0  0  0  0  0  0  0
   -1.6204  105.1497   25.0145 C   0  0  0  0  0  0  0  0  0  0  0  0
   -1.7804  108.0895   21.5745 C   0  0  0  0  0  0  0  0  0  0  0  0
   -3.6209  108.6052   22.9876 C   0  0  0  0  0  0  0  0  0  0  0  0
   -3.0242  108.7281   21.7537 C   0  0  0  0  0  0  0  0  0  0  0  0
    0.7799  105.2801   24.9846 C   0  0  0  0  0  0  0  0  0  0  0  0
   -3.0171  107.8139   23.9476 C   0  0  0  0  0  0  0  0  0  0  0  0
    6.3464  110.7357   23.2421 O   0  0  0  0  0  0  0  0  0  0  0  0
    4.1594  106.8532   25.4261 C   0  0  0  0  0  0  0  0  0  0  0  0
    1.1865  106.8804   23.2587 O   0  0  0  0  0  0  0  0  0  0  0  0
    0.1558  106.1010   23.8759 C   0  0  0  0  0  0  0  0  0  0  0  0
   -1.4262  108.1204   18.1219 O   0  0  0  0  0  0  0  0  0  0  0  0
    6.8096  110.4286   25.5888 O   0  0  0  0  0  0  0  0  0  0  0  0
   -1.2480  107.4616   22.5376 N   0  0  0  0  0  0  0  0  0  0  0  0
    3.4070  107.4769   24.1603 C   0  0  0  0  0  0  0  0  0  0  0  0
    4.1787  108.4996   23.7181 C   0  0  0  0  0  0  0  0  0  0  0  0
    6.6257  109.7484   24.2964 P   0  0  0  0  0  4  0  0  0  0  0  0
   -0.3528  104.6126   25.6385 C   0  0  0  0  0  0  0  0  0  0  0  0
    5.3266  108.6219   24.4870 C   0  0  0  0  0  0  0  0  0  0  0  0
   -1.8772  108.5609   19.2976 C   0  0  0  0  0  0  0  0  0  0  0  0
    0.1273  107.7367   20.3793 O   0  0  0  0  0  0  0  0  0  0  0  0
    2.3044  106.8413   24.0486 C   0  0  0  0  0  0  0  0  0  0  0  0
    3.2909  105.8831   25.8930 C   0  0  0  0  0  0  0  0  0  0  0  0
   -1.1264  106.4329   24.4973 N   0  0  0  0  0  0  0  0  0  0  0  0
  1 14  1  0
  1 21  2  0
  1 31  1  0
  2 16  1  0
  2 26  1  0
  3  8  1  0
  3 27  2  0
  4 13  1  0
  4 29  1  0
  4 30  1  0
  5 10  1  0
  5 27  1  0
  5 28  1  0
  6 24  2  0
  7 25  1  0
  8 12  1  0
  9 25  1  0
  9 31  1  0
 10 12  2  0
 10 21  1  0
 11 12  1  0
 11 14  2  0
 13 18  1  0
 13 25  1  0
 15 24  1  0
 16 22  1  0
 16 30  1  0
 17 18  1  0
 17 29  1  0
 18 31  1  0
 19 27  1  0
 20 24  1  0
 22 23  1  0
 22 29  2  0
 23 26  1  0
 24 26  1  0
M  END
>  <ID>  (1) 
conformer_0

$$$$
