
     RDKit          3D

 23 26  0  0  0  0  0  0  0  0999 V2000
    2.3999  107.8873   23.4403 N   0  0  0  0  0  0  0  0  0  0  0  0
    6.9432  109.4041   25.3754 C   0  0  0  0  0  0  0  0  0  0  0  0
   -2.5896  108.7805   21.6368 C   0  0  0  0  0  0  0  0  0  0  0  0
   -3.2588  109.5620   19.4530 C   0  0  0  0  0  0  0  0  0  0  0  0
   -0.9191  107.5639   20.2555 N   0  0  0  0  0  0  0  0  0  0  0  0
    5.2399  109.2396   23.6867 C   0  0  0  0  0  0  0  0  0  0  0  0
    0.3698  107.3867   22.4635 C   0  0  0  0  0  0  0  0  0  0  0  0
   -1.5048  107.9579   21.4518 C   0  0  0  0  0  0  0  0  0  0  0  0
    5.2161  107.8635   25.6137 C   0  0  0  0  0  0  0  0  0  0  0  0
    1.1327  106.1309   24.4311 C   0  0  0  0  0  0  0  0  0  0  0  0
   -3.4076  109.4496   20.8285 C   0  0  0  0  0  0  0  0  0  0  0  0
    2.3081  105.7195   24.9493 N   0  0  0  0  0  0  0  0  0  0  0  0
    4.6397  108.2983   24.4324 C   0  0  0  0  0  0  0  0  0  0  0  0
   -0.9199  107.4815   22.5992 N   0  0  0  0  0  0  0  0  0  0  0  0
    6.4113  109.8012   24.1547 C   0  0  0  0  0  0  0  0  0  0  0  0
    6.3357  108.4224   26.1222 C   0  0  0  0  0  0  0  0  0  0  0  0
    4.4131  106.8008   26.1476 C   0  0  0  0  0  0  0  0  0  0  0  0
   -2.2949  108.8724   18.7631 C   0  0  0  0  0  0  0  0  0  0  0  0
    3.2712  106.5888   25.1964 C   0  0  0  0  0  0  0  0  0  0  0  0
   -1.3652  108.0069   19.0999 C   0  0  0  0  0  0  0  0  0  0  0  0
    1.2613  107.1898   23.5485 C   0  0  0  0  0  0  0  0  0  0  0  0
    3.4041  107.6265   24.2029 C   0  0  0  0  0  0  0  0  0  0  0  0
   -0.0351  105.7794   25.2969 C   0  0  0  0  0  0  0  0  0  0  0  0
  1 21  1  0
  1 22  2  0
  2 15  1  0
  2 16  2  0
  3  8  1  0
  3 11  2  0
  4 11  1  0
  4 18  1  0
  5  8  2  0
  5 20  1  0
  6 13  1  0
  6 15  2  0
  7 14  1  0
  7 21  1  0
  8 14  1  0
  9 13  2  0
  9 16  1  0
  9 17  1  0
 10 12  1  0
 10 21  1  0
 10 23  1  0
 12 19  1  0
 13 22  1  0
 17 19  1  0
 18 20  2  0
 19 22  1  0
M  END
>  <ID>  (1) 
conformer_0

$$$$
