
     RDKit          3D

 31 33  0  0  0  0  0  0  0  0999 V2000
    7.4362  109.7248   23.4406 O   0  0  0  0  0  0  0  0  0  0  0  0
    1.2317  107.2286   23.1468 C   0  0  0  0  0  0  0  0  0  0  0  0
   -2.3855  108.6655   20.4647 C   0  0  0  0  0  0  0  0  0  0  0  0
   -0.4714  104.6689   27.7908 C   0  0  0  0  0  0  0  0  0  0  0  0
   -0.9291  108.2160   18.5737 C   0  0  0  0  0  0  0  0  0  0  0  0
    6.6065  109.6820   24.3886 C   0  0  0  0  0  0  0  0  0  0  0  0
   -0.8856  107.6886   22.3744 C   0  0  0  0  0  0  0  0  0  0  0  0
    7.3531  107.6241   25.9626 N   0  0  0  0  0  0  0  0  0  0  0  0
    2.5618  104.8758   26.5862 C   0  0  0  0  0  0  0  0  0  0  0  0
    4.4150  108.5037   23.8930 C   0  0  0  0  0  0  0  0  0  0  0  0
    6.7904  110.4490   25.3797 O   0  0  0  0  0  0  0  0  0  0  0  0
    5.6583  108.5957   24.5099 C   0  0  0  0  0  0  0  0  0  0  0  0
   -1.7963  109.0192   19.2998 O   0  0  0  0  0  0  0  0  0  0  0  0
    4.0882  106.5033   25.0747 C   0  0  0  0  0  0  0  0  0  0  0  0
   -3.8365  109.0924   20.4145 C   0  0  0  0  0  0  0  0  0  0  0  0
    3.6546  107.4072   24.1414 C   0  0  0  0  0  0  0  0  0  0  0  0
    1.7890  105.4733   25.5246 C   0  0  0  0  0  0  0  0  0  0  0  0
    6.0508  107.5748   25.4034 C   0  0  0  0  0  0  0  0  0  0  0  0
    0.3096  106.5794   24.0039 C   0  0  0  0  0  0  0  0  0  0  0  0
    5.2648  106.5581   25.7316 C   0  0  0  0  0  0  0  0  0  0  0  0
   -3.2971  108.3368   22.5041 C   0  0  0  0  0  0  0  0  0  0  0  0
    0.5834  103.5381   27.5126 C   0  0  0  0  0  0  0  0  0  0  0  0
   -0.9717  106.9139   23.5317 C   0  0  0  0  0  0  0  0  0  0  0  0
    0.5106  107.8291   22.1315 C   0  0  0  0  0  0  0  0  0  0  0  0
    2.5489  107.2416   23.3465 O   0  0  0  0  0  0  0  0  0  0  0  0
    3.9466  104.6213   27.3293 C   0  0  0  0  0  0  0  0  0  0  0  0
    0.5323  105.6771   25.0571 C   0  0  0  0  0  0  0  0  0  0  0  0
   -2.0813  106.4072   24.1209 O   0  0  0  0  0  0  0  0  0  0  0  0
   -4.3260  108.8647   21.7040 C   0  0  0  0  0  0  0  0  0  0  0  0
    1.8152  103.7531   27.0525 N   0  0  0  0  0  0  0  0  0  0  0  0
   -2.0893  108.2023   21.7716 C   0  0  0  0  0  0  0  0  0  0  0  0
  1  6  2  0
  2 19  2  0
  2 24  1  0
  2 25  1  0
  3 13  1  0
  3 15  1  0
  3 31  2  0
  4 22  1  0
  5 13  1  0
  6 11  1  0
  6 12  1  0
  7 23  2  0
  7 24  1  0
  7 31  1  0
  8 18  1  0
  9 17  1  0
  9 26  1  0
  9 30  1  0
 10 12  2  0
 10 16  1  0
 12 18  1  0
 14 16  2  0
 14 20  1  0
 15 29  1  0
 16 25  1  0
 17 27  2  3
 18 20  2  0
 19 23  1  0
 19 27  1  0
 21 29  1  0
 21 31  1  0
 22 30  2  3
 23 28  1  0
M  END
>  <ID>  (1) 
conformer_0

$$$$
