
     RDKit          3D

 42 45  0  0  0  0  0  0  0  0999 V2000
    1.6684  102.6205   24.8719 C   0  0  0  0  0  0  0  0  0  0  0  0
    5.9166  107.5444   26.8417 C   0  0  0  0  0  0  0  0  0  0  0  0
    7.8164  109.4255   23.5832 O   0  0  0  0  0  0  0  0  0  0  0  0
    2.5231  106.0056   24.4235 C   0  0  0  0  0  0  0  0  0  0  0  0
   -3.1164  108.4582   21.9994 C   0  0  0  0  0  0  0  0  0  0  0  0
   -0.7746  108.4501   20.3503 C   0  0  0  0  0  0  0  0  0  0  0  0
    2.1518  101.4470   24.3796 O   0  0  0  0  0  0  0  0  0  0  0  0
    6.6212  108.2512   25.8084 C   0  0  0  0  0  0  0  0  0  0  0  0
    2.7940  107.0181   25.3755 O   0  0  0  0  0  0  0  0  0  0  0  0
   -1.8112  107.8892   23.9282 C   0  0  0  0  0  0  0  0  0  0  0  0
    3.0345  106.1493   23.2423 O   0  0  0  0  0  0  0  0  0  0  0  0
    5.7651  109.1774   24.9659 C   0  0  0  0  0  0  0  0  0  0  0  0
    2.0581  102.9568   26.3054 C   0  0  0  0  0  0  0  0  0  0  0  0
   -4.3099  109.2505   19.9142 C   0  0  0  0  0  0  0  0  0  0  0  0
    3.0248  104.0495   26.3273 O   0  0  0  0  0  0  0  0  0  0  0  0
   -0.7704  108.3496   18.8500 C   0  0  0  0  0  0  0  0  0  0  0  0
   -1.8497  107.2348   25.2532 C   0  0  0  0  0  0  0  0  0  0  0  0
    4.5239  108.4900   24.7975 O   0  0  0  0  0  0  0  0  0  0  0  0
    1.3213  105.1213   24.6919 C   0  0  0  0  0  0  0  0  0  0  0  0
    5.3028  106.5246   28.7138 N   0  0  0  0  0  0  0  0  0  0  0  0
    1.5840  103.6039   22.5904 N   0  0  0  0  0  0  0  0  0  0  0  0
    3.0245  103.7981   27.7486 C   0  0  0  0  0  0  0  0  0  0  0  0
   -0.5952  107.6577   23.1625 C   0  0  0  0  0  0  0  0  0  0  0  0
   -4.3569  109.0308   21.4154 C   0  0  0  0  0  0  0  0  0  0  0  0
    3.5897  104.9454   29.7238 O   0  0  0  0  0  0  0  0  0  0  0  0
   -1.0469  106.0047   25.4094 C   0  0  0  0  0  0  0  0  0  0  0  0
    6.7003  109.9199   23.9601 C   0  0  0  0  0  0  0  0  0  0  0  0
    1.3839  103.7680   24.0448 C   0  0  0  0  0  0  0  0  0  0  0  0
   -3.0566  108.1511   23.3390 N   0  0  0  0  0  0  0  0  0  0  0  0
    0.2284  106.8161   22.2386 C   0  0  0  0  0  0  0  0  0  0  0  0
   -1.4876  104.9390   25.7934 O   0  0  0  0  0  0  0  0  0  0  0  0
    4.8424  106.5995   26.4817 C   0  0  0  0  0  0  0  0  0  0  0  0
    4.5566  105.8755   27.7457 C   0  0  0  0  0  0  0  0  0  0  0  0
   -2.9635  109.6717   19.2894 C   0  0  0  0  0  0  0  0  0  0  0  0
    6.3196  107.2589   28.1374 C   0  0  0  0  0  0  0  0  0  0  0  0
   -2.2269  108.6082   18.4142 C   0  0  0  0  0  0  0  0  0  0  0  0
    0.3078  106.0681   25.2756 N   0  0  0  0  0  0  0  0  0  0  0  0
   -2.0413  108.0131   21.0697 C   0  0  0  0  0  0  0  0  0  0  0  0
    4.2316  107.2421   25.2947 C   0  0  0  0  0  0  0  0  0  0  0  0
   -3.1746  107.1271   25.6581 N   0  0  0  0  0  0  0  0  0  0  0  0
    6.2563  110.9613   23.3960 O   0  0  0  0  0  0  0  0  0  0  0  0
    3.7535  104.8811   28.4373 C   0  0  0  0  0  0  0  0  0  0  0  0
  1  7  1  0
  1 13  1  0
  1 28  1  0
  2  8  1  0
  2 32  1  0
  2 35  1  0
  3 27  2  0
  4  9  1  0
  4 11  2  0
  4 19  1  0
  5 24  1  0
  5 29  1  0
  5 38  1  0
  6 16  1  0
  6 38  1  0
  8 12  1  0
  9 39  1  0
 10 17  1  0
 10 23  1  0
 10 29  2  3
 12 18  1  0
 12 27  1  0
 13 15  1  0
 14 24  1  0
 14 34  1  0
 15 22  1  0
 16 36  1  0
 17 26  1  0
 17 40  1  0
 18 39  1  0
 19 28  1  0
 19 37  2  3
 20 33  1  0
 20 35  1  0
 21 28  1  0
 22 42  1  0
 23 30  1  0
 25 42  1  0
 26 31  2  0
 26 37  1  0
 27 41  1  0
 32 33  1  0
 32 39  1  0
 33 42  1  0
 34 36  1  0
M  END
>  <ID>  (1) 
conformer_0

$$$$
