
     RDKit          3D

 22 24  0  0  0  0  0  0  0  0999 V2000
    2.6460  106.7400   24.9397 C   0  0  0  0  0  0  0  0  0  0  0  0
    6.8971  109.2750   25.5049 C   0  0  0  0  0  0  0  0  0  0  0  0
   -2.8430  108.5609   22.2170 C   0  0  0  0  0  0  0  0  0  0  0  0
    0.2555  106.8583   23.4133 C   0  0  0  0  0  0  0  0  0  0  0  0
   -2.0497  108.5224   18.1932 Cl  0  0  0  0  0  0  0  0  0  0  0  0
   -0.4029  107.6505   21.2963 C   0  0  0  0  0  0  0  0  0  0  0  0
    3.7081  107.0882   25.7670 C   0  0  0  0  0  0  0  0  0  0  0  0
    4.5138  108.4640   24.0201 C   0  0  0  0  0  0  0  0  0  0  0  0
   -0.7657  108.4111   18.9686 C   0  0  0  0  0  0  0  0  0  0  0  0
   -1.2422  108.2224   20.4337 C   0  0  0  0  0  0  0  0  0  0  0  0
    1.4206  107.3100   22.9713 C   0  0  0  0  0  0  0  0  0  0  0  0
    4.6273  108.0863   25.3421 C   0  0  0  0  0  0  0  0  0  0  0  0
    8.0186  108.6529   25.9321 N   0  0  0  0  0  0  0  0  0  0  0  0
   -0.7663  107.4800   22.6113 C   0  0  0  0  0  0  0  0  0  0  0  0
    0.3486  105.9027   24.4617 C   0  0  0  0  0  0  0  0  0  0  0  0
    5.6429  108.8064   26.2585 C   0  0  0  0  0  0  0  0  0  0  0  0
    1.5731  105.8103   25.1926 O   0  0  0  0  0  0  0  0  0  0  0  0
    3.5795  108.1204   23.2103 N   0  0  0  0  0  0  0  0  0  0  0  0
   -1.9539  107.9588   23.1026 C   0  0  0  0  0  0  0  0  0  0  0  0
   -2.5018  108.6524   20.8631 C   0  0  0  0  0  0  0  0  0  0  0  0
    7.0521  109.9246   24.3790 O   0  0  0  0  0  0  0  0  0  0  0  0
    2.5270  107.3915   23.7105 C   0  0  0  0  0  0  0  0  0  0  0  0
  1  7  1  0
  1 17  1  0
  1 22  1  0
  2 13  1  0
  2 16  1  0
  2 21  2  0
  3 19  2  0
  3 20  1  0
  4 11  1  0
  4 14  1  0
  4 15  1  0
  5  9  1  0
  6 10  1  0
  6 14  2  0
  7 12  2  0
  8 12  1  0
  8 18  2  0
  9 10  1  0
 10 20  2  0
 11 22  2  0
 12 16  1  0
 14 19  1  0
 15 17  1  0
 18 22  1  0
M  END
>  <ID>  (1) 
conformer_0

$$$$
