
     RDKit          3D

 39 42  0  0  0  0  0  0  0  0999 V2000
    1.1622  107.3459   23.1249 C   0  0  0  0  0  0  0  0  0  0  0  0
   -1.6430  108.5549   18.6551 C   0  0  0  0  0  0  0  0  0  0  0  0
   -1.1196  106.1120   27.8200 C   0  0  0  0  0  0  0  0  0  0  0  0
    1.7782  103.9020   24.4729 C   0  0  0  0  0  0  0  0  0  0  0  0
    2.4037  100.9760   24.0203 C   0  0  0  0  0  0  0  0  0  0  0  0
    2.0970  101.6286   25.3685 C   0  0  0  0  0  0  0  0  0  0  0  0
    0.4270  107.3936   22.0226 N   0  0  0  0  0  0  0  0  0  0  0  0
   -1.4415  107.8060   23.3172 N   0  0  0  0  0  0  0  0  0  0  0  0
    4.2227  107.5433   24.3103 C   0  0  0  0  0  0  0  0  0  0  0  0
   -2.8680  107.9764   23.7702 C   0  0  0  0  0  0  0  0  0  0  0  0
   -1.5194  108.2130   20.9574 C   0  0  0  0  0  0  0  0  0  0  0  0
   -0.9198  108.0972   19.7519 C   0  0  0  0  0  0  0  0  0  0  0  0
    0.7403  104.9495   26.5655 S   0  0  0  0  0  4  0  0  0  0  0  0
    5.0813  108.5580   23.9165 C   0  0  0  0  0  0  0  0  0  0  0  0
    2.8985  105.8116   23.2588 C   0  0  0  0  0  0  0  0  0  0  0  0
    1.7793  105.6077   27.3076 O   0  0  0  0  0  1  0  0  0  0  0  0
   -2.8905  109.1136   18.7918 C   0  0  0  0  0  0  0  0  0  0  0  0
   -3.2294  106.0802   25.2183 O   0  0  0  0  0  0  0  0  0  0  0  0
    1.5066  106.1398   23.6609 N   0  0  0  0  0  0  0  0  0  0  0  0
   -3.5208  109.2415   20.0286 C   0  0  0  0  0  0  0  0  0  0  0  0
    0.3743  103.6066   27.1765 O   0  0  0  0  0  1  0  0  0  0  0  0
    4.4214  107.2540   25.6382 C   0  0  0  0  0  0  0  0  0  0  0  0
    1.7066  103.5621   23.1282 O   0  0  0  0  0  0  0  0  0  0  0  0
   -1.9641  107.7301   26.2321 O   0  0  0  0  0  0  0  0  0  0  0  0
    7.5061  110.2590   26.0392 O   0  0  0  0  0  0  0  0  0  0  0  0
   -2.8075  108.7562   21.1456 C   0  0  0  0  0  0  0  0  0  0  0  0
    1.8538  101.1487   26.7849 C   0  0  0  0  0  0  0  0  0  0  0  0
    5.4803  108.0269   26.0798 C   0  0  0  0  0  0  0  0  0  0  0  0
    5.9820  108.7604   25.0024 C   0  0  0  0  0  0  0  0  0  0  0  0
   -3.4272  108.7694   22.4920 C   0  0  0  0  0  0  0  0  0  0  0  0
   -0.8360  107.7897   22.1289 C   0  0  0  0  0  0  0  0  0  0  0  0
    7.8287  109.7136   23.9181 O   0  0  0  0  0  0  0  0  0  0  0  0
    2.5695  103.0745   25.4098 C   0  0  0  0  0  0  0  0  0  0  0  0
   -0.6350  105.6705   26.5900 N   0  0  0  0  0  0  0  0  0  0  0  0
    1.1312  105.2347   24.8318 C   0  0  0  0  0  0  0  0  0  0  0  0
    7.1405  109.6210   24.9925 C   0  0  0  0  0  0  0  0  0  0  0  0
   -1.9469  107.2975   27.6216 C   0  0  0  0  0  0  0  0  0  0  0  0
   -2.8281  107.2735   25.2461 C   0  0  0  0  0  0  0  0  0  0  0  0
    3.5842  106.9136   23.3579 O   0  0  0  0  0  0  0  0  0  0  0  0
  1  7  1  0
  1 19  1  0
  2 12  1  0
  2 17  2  0
  3 34  1  0
  3 37  1  0
  4 23  1  0
  4 33  1  0
  4 35  1  0
  5  6  1  0
  6 27  1  0
  6 33  1  0
  7 31  1  0
  8 10  1  0
  8 31  2  0
  9 14  1  0
  9 22  1  0
  9 39  1  0
 10 30  1  0
 10 38  1  0
 11 12  2  0
 11 26  1  0
 11 31  1  0
 13 16  1  0
 13 21  1  0
 13 34  1  0
 13 35  1  0
 14 29  1  0
 15 19  1  0
 15 39  1  0
 17 20  1  0
 18 38  2  0
 19 35  1  0
 20 26  2  0
 22 28  1  0
 24 37  1  0
 24 38  1  0
 25 36  2  0
 26 30  1  0
 28 29  1  0
 29 36  1  0
 32 36  1  0
M  END
>  <ID>  (1) 
conformer_0

$$$$
