
     RDKit          3D

 40 42  0  0  0  0  0  0  0  0999 V2000
   -2.3088  107.4090   24.0253 C   0  0  0  0  0  0  0  0  0  0  0  0
   -1.7401  108.2976   20.8530 C   0  0  0  0  0  0  0  0  0  0  0  0
    2.4809  105.2346   25.4070 C   0  0  0  0  0  0  0  0  0  0  0  0
    6.3238  108.3599   25.3865 C   0  0  0  0  0  0  0  0  0  0  0  0
    2.4768  106.4628   23.1793 C   0  0  0  0  0  0  0  0  0  0  0  0
   -0.5151  103.6417   26.9823 O   0  0  0  0  0  0  0  0  0  0  0  0
    2.9438  107.5855   22.5537 N   0  0  0  0  0  0  0  0  0  0  0  0
    1.7066  105.6519   22.6445 O   0  0  0  0  0  0  0  0  0  0  0  0
   -2.2473  109.0474   19.8031 C   0  0  0  0  0  0  0  0  0  0  0  0
   -2.5195  108.2669   21.8846 C   0  0  0  0  0  0  0  0  0  0  0  0
    2.5623  108.5415   20.0351 C   0  0  0  0  0  0  0  0  0  0  0  0
    1.0488  102.4932   25.9084 O   0  0  0  0  0  0  0  0  0  0  0  0
    3.9867  107.4707   24.6299 C   0  0  0  0  0  0  0  0  0  0  0  0
    2.9690  104.0123   24.7964 N   0  0  0  0  0  0  0  0  0  0  0  0
    6.6324  109.5648   24.5650 C   0  0  0  0  0  0  0  0  0  0  0  0
   -1.9700  108.8769   18.5425 F   0  0  0  0  0  0  0  0  0  0  0  0
   -0.4387  107.8930   20.6051 F   0  0  0  0  0  0  0  0  0  0  0  0
    7.1444  108.2304   26.6502 C   0  0  0  0  0  0  0  0  0  0  0  0
    6.0638  110.6503   24.7904 O   0  0  0  0  0  0  0  0  0  0  0  0
    6.3745  107.3151   27.5638 C   0  0  0  0  0  0  0  0  0  0  0  0
   -2.8780  107.0620   25.2221 C   0  0  0  0  0  0  0  0  0  0  0  0
   -3.2444  109.9467   20.1010 F   0  0  0  0  0  0  0  0  0  0  0  0
    1.3344  104.9499   26.2524 C   0  0  0  0  0  0  0  0  0  0  0  0
    2.2709  108.1593   21.5341 C   0  0  0  0  0  0  0  0  0  0  0  0
    2.9521  106.4257   24.6082 C   0  0  0  0  0  0  0  0  0  0  0  0
   -1.0360  107.1797   23.6648 C   0  0  0  0  0  0  0  0  0  0  0  0
   -0.6635  106.2220   26.0345 O   0  0  0  0  0  0  0  0  0  0  0  0
    0.4572  105.9822   26.7575 C   0  0  0  0  0  0  0  0  0  0  0  0
    4.3319  106.1771   27.3143 O   0  0  0  0  0  0  0  0  0  0  0  0
   -4.1981  107.4061   25.5005 C   0  0  0  0  0  0  0  0  0  0  0  0
   -2.0790  106.3378   26.2739 C   0  0  0  0  0  0  0  0  0  0  0  0
    7.3691  109.5344   27.3062 N   0  0  0  0  0  0  0  0  0  0  0  0
    7.5678  109.4702   23.7014 O   0  0  0  0  0  0  0  0  0  0  0  0
   -4.9083  108.1002   24.5256 C   0  0  0  0  0  0  0  0  0  0  0  0
   -4.3801  108.4448   23.2994 C   0  0  0  0  0  0  0  0  0  0  0  0
    0.5900  103.6325   26.3065 C   0  0  0  0  0  0  0  0  0  0  0  0
    5.0446  107.7028   25.5944 C   0  0  0  0  0  0  0  0  0  0  0  0
    5.1603  106.9697   26.7994 C   0  0  0  0  0  0  0  0  0  0  0  0
   -3.0870  108.0744   23.0328 C   0  0  0  0  0  0  0  0  0  0  0  0
    3.8173  108.2104   23.4126 C   0  0  0  0  0  0  0  0  0  0  0  0
  1 21  1  0
  1 26  2  0
  1 39  1  0
  2  9  1  0
  2 10  2  0
  2 17  1  0
  3 14  1  0
  3 23  1  0
  3 25  1  0
  4 15  1  0
  4 18  1  0
  4 37  1  0
  5  7  1  0
  5  8  2  0
  5 25  1  0
  6 36  2  0
  7 24  1  0
  7 40  1  0
  9 16  1  0
  9 22  1  0
 10 39  2  0
 11 24  1  0
 12 36  1  0
 13 25  2  0
 13 37  1  0
 13 40  1  0
 15 19  2  0
 15 33  1  0
 18 20  1  0
 18 32  1  0
 20 38  1  0
 21 30  2  0
 21 31  1  0
 23 28  1  0
 23 36  1  0
 27 28  1  0
 27 31  1  0
 29 38  2  0
 30 34  1  0
 34 35  2  0
 35 39  1  0
 37 38  1  0
M  END
>  <ID>  (1) 
conformer_0

$$$$
