
     RDKit          3D

 25 26  0  0  0  0  0  0  0  0999 V2000
    6.0194  108.1614   25.7147 C   0  0  0  0  0  0  0  0  0  0  0  0
    7.3457  108.8428   23.8083 O   0  0  0  0  0  0  0  0  0  0  0  0
   -1.8292  108.4347   22.2900 N   0  0  0  0  0  0  0  0  0  0  0  0
    6.4281  109.1228   24.6576 C   0  0  0  0  0  0  0  0  0  0  0  0
    4.9761  107.1558   25.7368 C   0  0  0  0  0  0  0  0  0  0  0  0
    2.6728  106.9368   22.6216 O   0  0  0  0  0  0  0  0  0  0  0  0
   -1.2111  108.0842   21.1871 C   0  0  0  0  0  0  0  0  0  0  0  0
    6.5003  107.5666   28.0390 C   0  0  0  0  0  0  0  0  0  0  0  0
   -1.6753  108.3893   19.7872 C   0  0  0  0  0  0  0  0  0  0  0  0
    4.7443  106.4739   26.8912 C   0  0  0  0  0  0  0  0  0  0  0  0
   -0.8181  108.0977   18.6834 F   0  0  0  0  0  0  0  0  0  0  0  0
   -3.6759  109.6159   20.3861 F   0  0  0  0  0  0  0  0  0  0  0  0
    2.0743  106.5873   23.6539 C   0  0  0  0  0  0  0  0  0  0  0  0
   -1.2071  107.9412   23.3814 N   0  0  0  0  0  0  0  0  0  0  0  0
    6.7565  108.3136   26.9006 C   0  0  0  0  0  0  0  0  0  0  0  0
    4.1656  106.8312   24.6604 N   0  0  0  0  0  0  0  0  0  0  0  0
    5.4556  106.6594   28.0467 C   0  0  0  0  0  0  0  0  0  0  0  0
    6.1556  110.3953   24.8580 O   0  0  0  0  0  0  0  0  0  0  0  0
   -0.1265  107.3012   22.9625 C   0  0  0  0  0  0  0  0  0  0  0  0
   -0.1254  107.3801   21.5723 N   0  0  0  0  0  0  0  0  0  0  0  0
    2.2636  105.9305   25.9244 O   0  0  0  0  0  0  0  0  0  0  0  0
    2.8992  106.3117   24.8841 C   0  0  0  0  0  0  0  0  0  0  0  0
    0.7551  106.7347   23.8543 N   0  0  0  0  0  0  0  0  0  0  0  0
   -2.8167  109.3187   19.4264 C   0  0  0  0  0  0  0  0  0  0  0  0
   -3.1170  109.3914   18.1035 F   0  0  0  0  0  0  0  0  0  0  0  0
  1  4  1  0
  1  5  2  0
  1 15  1  0
  2  4  2  0
  3  7  1  0
  3 14  1  0
  4 18  1  0
  5 10  1  0
  5 16  1  0
  6 13  2  0
  7  9  2  3
  7 20  1  0
  8 15  2  0
  8 17  1  0
  9 11  1  0
  9 24  1  0
 10 17  2  0
 12 24  1  0
 13 22  1  0
 13 23  1  0
 14 19  2  0
 16 22  1  0
 19 20  1  0
 19 23  1  0
 21 22  2  0
 24 25  1  0
M  END
>  <ID>  (1) 
conformer_0

$$$$
