
     RDKit          3D

 23 25  0  0  0  0  0  0  0  0999 V2000
    2.9093  106.7947   23.9655 C   0  0  0  0  0  0  0  0  0  0  0  0
    1.9027  104.8340   22.8647 O   0  0  0  0  0  0  0  0  0  0  0  0
    2.9871  107.9675   23.1848 C   0  0  0  0  0  0  0  0  0  0  0  0
    0.0309  107.3181   21.4179 O   0  0  0  0  0  0  0  0  0  0  0  0
   -2.1064  107.0908   24.3848 O   0  0  0  0  0  0  0  0  0  0  0  0
   -1.9320  108.6816   18.6205 C   0  0  0  0  0  0  0  0  0  0  0  0
    4.9786  108.6681   24.4000 C   0  0  0  0  0  0  0  0  0  0  0  0
   -2.0897  108.6260   22.7240 N   0  0  0  0  0  0  0  0  0  0  0  0
   -2.9643  109.3256   19.2550 C   0  0  0  0  0  0  0  0  0  0  0  0
    6.5289  110.2865   23.5077 O   0  0  0  0  0  0  0  0  0  0  0  0
    4.8292  107.5953   25.2565 C   0  0  0  0  0  0  0  0  0  0  0  0
   -1.4836  107.5967   23.3421 C   0  0  0  0  0  0  0  0  0  0  0  0
    6.0952  109.6464   24.5199 C   0  0  0  0  0  0  0  0  0  0  0  0
   -3.0601  109.2758   20.6452 C   0  0  0  0  0  0  0  0  0  0  0  0
    1.8367  105.8793   23.6432 C   0  0  0  0  0  0  0  0  0  0  0  0
   -0.3485  106.9216   22.6946 C   0  0  0  0  0  0  0  0  0  0  0  0
    4.0290  108.8228   23.3900 C   0  0  0  0  0  0  0  0  0  0  0  0
   -0.9902  107.9557   20.6703 C   0  0  0  0  0  0  0  0  0  0  0  0
    6.6071  109.8681   25.6794 O   0  0  0  0  0  0  0  0  0  0  0  0
    3.7973  106.6306   25.0224 C   0  0  0  0  0  0  0  0  0  0  0  0
    0.6651  106.6258   23.6135 N   0  0  0  0  0  0  0  0  0  0  0  0
   -0.9475  107.9874   19.2870 C   0  0  0  0  0  0  0  0  0  0  0  0
   -2.0643  108.6079   21.3500 C   0  0  0  0  0  0  0  0  0  0  0  0
  1  3  2  0
  1 15  1  0
  1 20  1  0
  2 15  2  0
  3 17  1  0
  4 16  1  0
  4 18  1  0
  5 12  2  0
  6  9  2  0
  6 22  1  0
  7 11  1  0
  7 13  1  0
  7 17  2  0
  8 12  1  0
  8 23  1  0
  9 14  1  0
 10 13  2  0
 11 20  2  0
 12 16  1  0
 13 19  1  0
 14 23  2  0
 15 21  1  0
 16 21  1  0
 18 22  2  0
 18 23  1  0
M  END
>  <ID>  (1) 
conformer_0

$$$$
