
     RDKit          3D

 33 36  0  0  0  0  0  0  0  0999 V2000
    2.9669  105.4298   25.6021 C   0  0  0  0  0  0  0  0  0  0  0  0
    0.0568  106.7217   23.8656 C   0  0  0  0  0  0  0  0  0  0  0  0
   -3.3564  109.2746   19.7219 C   0  0  0  0  0  0  0  0  0  0  0  0
    2.9855  103.2934   28.4961 C   0  0  0  0  0  0  0  0  0  0  0  0
    4.0538  106.2477   26.0472 C   0  0  0  0  0  0  0  0  0  0  0  0
    4.3550  107.1762   25.0986 C   0  0  0  0  0  0  0  0  0  0  0  0
    5.6062  108.8861   24.5357 C   0  0  0  0  0  0  0  0  0  0  0  0
    2.5040  104.5681   26.6413 C   0  0  0  0  0  0  0  0  0  0  0  0
   -4.4998  108.1030   24.0644 C   0  0  0  0  0  0  0  0  0  0  0  0
   -1.3956  106.4068   23.8842 C   0  0  0  0  0  0  0  0  0  0  0  0
   -2.4353  109.0139   18.5040 C   0  0  0  0  0  0  0  0  0  0  0  0
   -1.9729  106.4905   25.1958 O   0  0  0  0  0  0  0  0  0  0  0  0
   -2.8228  108.5184   22.3328 C   0  0  0  0  0  0  0  0  0  0  0  0
   -2.7541  108.4953   20.8650 C   0  0  0  0  0  0  0  0  0  0  0  0
   -5.2989  107.7344   23.1499 O   0  0  0  0  0  0  0  0  0  0  0  0
    5.7078  107.7534   25.3263 C   0  0  0  0  0  0  0  0  0  0  0  0
    0.7454  105.6710   24.5437 O   0  0  0  0  0  0  0  0  0  0  0  0
    2.1181  105.8983   24.5595 C   0  0  0  0  0  0  0  0  0  0  0  0
    6.5223  109.9295   24.2900 C   0  0  0  0  0  0  0  0  0  0  0  0
   -3.3305  107.1425   24.4577 C   0  0  0  0  0  0  0  0  0  0  0  0
    2.6817  106.6573   23.4823 C   0  0  0  0  0  0  0  0  0  0  0  0
    0.4021  107.4090   22.5928 C   0  0  0  0  0  0  0  0  0  0  0  0
    2.9619  102.2876   27.4884 O   0  0  0  0  0  0  0  0  0  0  0  0
    3.4221  104.5464   27.8423 C   0  0  0  0  0  0  0  0  0  0  0  0
    1.2254  104.3593   26.8428 O   0  0  0  0  0  0  0  0  0  0  0  0
   -0.4654  107.6651   21.4821 C   0  0  0  0  0  0  0  0  0  0  0  0
   -1.4481  108.0171   20.4479 C   0  0  0  0  0  0  0  0  0  0  0  0
   -4.3158  109.3371   24.4073 O   0  0  0  0  0  0  0  0  0  0  0  0
    3.8145  107.3320   23.8263 C   0  0  0  0  0  0  0  0  0  0  0  0
    7.5655  109.7883   23.6202 O   0  0  0  0  0  0  0  0  0  0  0  0
   -1.1876  108.3618   19.0339 C   0  0  0  0  0  0  0  0  0  0  0  0
    5.9095  111.1032   24.4021 N   0  0  0  0  0  0  0  0  0  0  0  0
   -2.4221  107.2693   23.1677 C   0  0  0  0  0  0  0  0  0  0  0  0
  1  5  1  0
  1  8  1  0
  1 18  1  0
  2 10  1  0
  2 17  1  0
  2 22  1  0
  3 11  1  0
  3 14  1  0
  4 23  1  0
  4 24  1  0
  5  6  1  0
  6 16  1  0
  6 29  2  0
  7 16  1  0
  7 19  1  0
  8 24  1  0
  8 25  1  0
  9 15  2  0
  9 20  1  0
  9 28  1  0
 10 12  1  0
 10 33  1  0
 11 31  1  0
 12 20  1  0
 13 14  1  0
 13 33  1  0
 14 27  1  0
 17 18  1  0
 18 21  1  0
 19 30  2  0
 19 32  1  0
 20 33  1  0
 21 29  1  0
 22 26  2  0
 26 27  2  0
 27 31  1  0
M  END
>  <ID>  (1) 
conformer_0

$$$$
