
     RDKit          3D

 19 19  0  0  0  0  0  0  0  0999 V2000
   -0.0877  107.6295   20.9982 C   0  0  0  0  0  0  0  0  0  0  0  0
    1.4205  105.8073   24.4472 C   0  0  0  0  0  0  0  0  0  0  0  0
    6.4228  108.1988   24.6502 O   0  0  0  0  0  0  0  0  0  0  0  0
    4.0597  108.3639   25.0320 C   0  0  0  0  0  0  0  0  0  0  0  0
   -2.7771  109.2290   18.9069 C   0  0  0  0  0  0  0  0  0  0  0  0
    3.4291  106.1752   26.0906 C   0  0  0  0  0  0  0  0  0  0  0  0
    2.1783  107.2463   22.6382 O   0  0  0  0  0  0  0  0  0  0  0  0
    5.3488  109.0544   24.8099 C   0  0  0  0  0  0  0  0  0  0  0  0
    4.2851  106.8384   25.0773 C   0  0  0  0  0  0  0  0  0  0  0  0
    1.9241  106.2084   25.8343 C   0  0  0  0  0  0  0  0  0  0  0  0
    1.2595  106.8876   23.3769 C   0  0  0  0  0  0  0  0  0  0  0  0
    6.8266  110.5184   23.7064 O   0  0  0  0  0  0  0  0  0  0  0  0
    5.5048  110.0490   23.6800 C   0  0  0  0  0  0  0  0  0  0  0  0
   -1.9785  108.7109   20.0530 C   0  0  0  0  0  0  0  0  0  0  0  0
   -1.7681  108.5507   22.4134 C   0  0  0  0  0  0  0  0  0  0  0  0
   -0.5829  107.8944   22.2585 C   0  0  0  0  0  0  0  0  0  0  0  0
   -2.4778  108.9624   21.3177 C   0  0  0  0  0  0  0  0  0  0  0  0
    0.0510  107.5124   23.3770 N   0  0  0  0  0  0  0  0  0  0  0  0
   -0.8047  108.0439   19.8922 C   0  0  0  0  0  0  0  0  0  0  0  0
  1 16  1  0
  1 19  1  0
  2 10  1  0
  2 11  1  0
  3  8  1  0
  4  8  1  0
  4  9  1  0
  5 14  1  0
  6  9  1  0
  6 10  1  0
  7 11  2  0
  8 13  1  0
 11 18  1  0
 12 13  1  0
 14 17  1  0
 14 19  2  0
 15 16  1  0
 15 17  2  0
 16 18  2  3
M  END
>  <ID>  (1) 
conformer_0

$$$$
