
     RDKit          3D

 28 32  0  0  0  0  0  0  0  0999 V2000
   -2.2667  108.5444   21.3620 C   0  0  0  0  0  0  0  0  0  0  0  0
   -2.0633  108.8512   19.0147 C   0  0  0  0  0  0  0  0  0  0  0  0
   -2.9880  109.1577   20.2274 C   0  0  0  0  0  0  0  0  0  0  0  0
    1.3292  106.2380   24.3172 C   0  0  0  0  0  0  0  0  0  0  0  0
    5.0315  107.7404   24.7627 N   0  0  0  0  0  0  0  0  0  0  0  0
   -1.9651  107.8958   23.6538 C   0  0  0  0  0  0  0  0  0  0  0  0
    5.3159  107.4108   27.2912 O   0  0  0  0  0  0  0  0  0  0  0  0
    5.4187  109.0212   25.3906 C   0  0  0  0  0  0  0  0  0  0  0  0
    4.3224  106.5582   25.2714 C   0  0  0  0  0  0  0  0  0  0  0  0
   -0.8481  108.1002   19.5978 C   0  0  0  0  0  0  0  0  0  0  0  0
   -0.2881  107.3686   22.0554 C   0  0  0  0  0  0  0  0  0  0  0  0
   -0.7261  107.3214   23.3812 C   0  0  0  0  0  0  0  0  0  0  0  0
    1.9273  105.7123   25.6121 C   0  0  0  0  0  0  0  0  0  0  0  0
    3.7059  105.3999   27.3945 C   0  0  0  0  0  0  0  0  0  0  0  0
    0.6393  105.6835   26.4449 C   0  0  0  0  0  0  0  0  0  0  0  0
    4.3104  106.6259   26.7489 C   0  0  0  0  0  0  0  0  0  0  0  0
    5.9818  108.6023   26.7725 C   0  0  0  0  0  0  0  0  0  0  0  0
    6.0462  110.8560   23.8847 O   0  0  0  0  0  0  0  0  0  0  0  0
   -0.4928  106.1858   25.6272 C   0  0  0  0  0  0  0  0  0  0  0  0
    6.3887  109.7203   24.3662 C   0  0  0  0  0  0  0  0  0  0  0  0
    3.2690  106.7070   23.1987 O   0  0  0  0  0  0  0  0  0  0  0  0
    7.3927  109.1237   23.8397 O   0  0  0  0  0  0  0  0  0  0  0  0
    0.3345  108.3150   19.0916 O   0  0  0  0  0  0  0  0  0  0  0  0
   -2.7181  108.5183   22.6614 C   0  0  0  0  0  0  0  0  0  0  0  0
    2.9113  106.3582   24.5819 C   0  0  0  0  0  0  0  0  0  0  0  0
    0.0337  106.7523   24.4269 N   0  0  0  0  0  0  0  0  0  0  0  0
   -1.0461  107.9648   21.0401 C   0  0  0  0  0  0  0  0  0  0  0  0
    2.8284  104.5779   26.3313 C   0  0  0  0  0  0  0  0  0  0  0  0
  1  3  1  0
  1 24  2  0
  1 27  1  0
  2  3  1  0
  2 10  1  0
  4 13  1  0
  4 26  1  0
  5  8  1  0
  5  9  1  0
  6 12  2  0
  6 24  1  0
  7 16  1  0
  7 17  1  0
  8 17  1  0
  8 20  1  0
  9 16  1  0
  9 25  1  0
 10 23  1  0
 10 27  1  0
 11 12  1  0
 11 27  2  0
 12 26  1  0
 13 15  1  0
 13 25  1  0
 13 28  1  0
 14 16  1  0
 14 28  1  0
 15 19  1  0
 18 20  2  0
 19 26  1  0
 20 22  1  0
 21 25  1  0
M  END
>  <ID>  (1) 
conformer_0

$$$$
