
     RDKit          3D

 31 34  0  0  0  0  0  0  0  0999 V2000
    4.9860  107.2173   26.4061 C   0  0  0  0  0  0  0  0  0  0  0  0
    4.1310  108.3358   24.4165 C   0  0  0  0  0  0  0  0  0  0  0  0
   -2.5414  106.9898   24.9297 C   0  0  0  0  0  0  0  0  0  0  0  0
   -1.5509  107.8475   21.4252 C   0  0  0  0  0  0  0  0  0  0  0  0
    2.7053  105.1044   23.2107 N   0  0  0  0  0  0  0  0  0  0  0  0
    1.7590  107.1553   22.7655 N   0  0  0  0  0  0  0  0  0  0  0  0
   -2.2293  108.1779   20.3037 O   0  0  0  0  0  0  0  0  0  0  0  0
   -0.3571  108.2800   18.7598 O   0  0  0  0  0  0  0  0  0  0  0  0
   -2.2585  107.7756   22.6332 C   0  0  0  0  0  0  0  0  0  0  0  0
   -1.6899  108.3526   19.0738 C   0  0  0  0  0  0  0  0  0  0  0  0
   -2.1081  106.8087   26.1276 O   0  0  0  0  0  0  0  0  0  0  0  0
    0.6406  106.4118   24.7083 N   0  0  0  0  0  0  0  0  0  0  0  0
    4.0957  107.1883   25.2597 C   0  0  0  0  0  0  0  0  0  0  0  0
    7.6977  109.3096   24.8734 C   0  0  0  0  0  0  0  0  0  0  0  0
    2.0409  106.3078   23.9858 C   0  0  0  0  0  0  0  0  0  0  0  0
    6.3952  107.4544   26.0540 C   0  0  0  0  0  0  0  0  0  0  0  0
    7.9778  110.0163   25.9108 N   0  0  0  0  0  0  0  0  0  0  0  0
   -0.2176  107.5660   21.4321 C   0  0  0  0  0  0  0  0  0  0  0  0
   -1.6696  107.2578   23.7845 C   0  0  0  0  0  0  0  0  0  0  0  0
   -3.5510  108.3255   22.5543 O   0  0  0  0  0  0  0  0  0  0  0  0
   -2.5855  109.0181   18.1517 C   0  0  0  0  0  0  0  0  0  0  0  0
    0.3856  107.2477   22.5793 C   0  0  0  0  0  0  0  0  0  0  0  0
    8.1295  109.6062   23.7058 O   0  0  0  0  0  0  0  0  0  0  0  0
   -0.2972  107.0099   23.7669 C   0  0  0  0  0  0  0  0  0  0  0  0
    5.2896  109.0875   24.5240 C   0  0  0  0  0  0  0  0  0  0  0  0
    0.0189  105.0251   26.5562 O   0  0  0  0  0  0  0  0  0  0  0  0
    2.1888  105.8501   26.3192 C   0  0  0  0  0  0  0  0  0  0  0  0
   -3.8422  107.0365   24.8790 O   0  0  0  0  0  0  0  0  0  0  0  0
    0.8105  105.8426   25.9559 N   0  0  0  0  0  0  0  0  0  0  0  0
    6.5065  108.3881   24.9334 C   0  0  0  0  0  0  0  0  0  0  0  0
    2.9293  106.3748   25.2241 C   0  0  0  0  0  0  0  0  0  0  0  0
  1 13  1  0
  1 16  1  0
  2 13  1  0
  2 25  1  0
  3 11  2  0
  3 19  1  0
  3 28  1  0
  4  7  1  0
  4  9  2  0
  4 18  1  0
  5 15  1  0
  6 15  1  0
  6 22  1  0
  7 10  1  0
  8 10  2  0
  9 19  1  0
  9 20  1  0
 10 21  1  0
 12 15  1  0
 12 24  1  0
 12 29  1  0
 13 31  1  0
 14 17  1  0
 14 23  2  0
 14 30  1  0
 15 31  1  0
 16 30  1  0
 18 22  2  0
 19 24  2  0
 22 24  1  0
 25 30  1  0
 26 29  1  0
 27 29  1  0
 27 31  1  0
M  END
>  <ID>  (1) 
conformer_0

$$$$
