
     RDKit          3D

 23 24  0  0  0  0  0  0  0  0999 V2000
   -0.7269  108.3739   19.8895 C   0  0  0  0  0  0  0  0  0  0  0  0
   -2.9695  108.3602   24.7778 C   0  0  0  0  0  0  0  0  0  0  0  0
   -1.5825  109.4517   20.1222 F   0  0  0  0  0  0  0  0  0  0  0  0
   -1.4917  108.0546   23.2173 C   0  0  0  0  0  0  0  0  0  0  0  0
    1.2175  107.0126   24.1599 N   0  0  0  0  0  0  0  0  0  0  0  0
   -1.7386  107.8234   24.4951 N   0  0  0  0  0  0  0  0  0  0  0  0
   -0.2884  107.7180   22.4721 C   0  0  0  0  0  0  0  0  0  0  0  0
    0.2353  108.8323   19.0558 F   0  0  0  0  0  0  0  0  0  0  0  0
   -2.5348  108.6892   22.7212 N   0  0  0  0  0  0  0  0  0  0  0  0
    6.3305  110.1999   25.3938 O   0  0  0  0  0  0  0  0  0  0  0  0
    4.9399  108.5275   26.2805 C   0  0  0  0  0  0  0  0  0  0  0  0
   -1.4030  107.5121   19.1239 F   0  0  0  0  0  0  0  0  0  0  0  0
    2.4192  106.3771   24.6034 C   0  0  0  0  0  0  0  0  0  0  0  0
    3.4903  107.3631   24.7843 C   0  0  0  0  0  0  0  0  0  0  0  0
    3.9825  108.0675   23.6691 C   0  0  0  0  0  0  0  0  0  0  0  0
    0.4965  106.6597   23.0654 C   0  0  0  0  0  0  0  0  0  0  0  0
   -3.4484  108.9659   23.6699 C   0  0  0  0  0  0  0  0  0  0  0  0
    5.4030  109.2410   25.2138 C   0  0  0  0  0  0  0  0  0  0  0  0
    4.9565  108.9999   23.9238 C   0  0  0  0  0  0  0  0  0  0  0  0
    0.3881  105.5072   22.5992 O   0  0  0  0  0  0  0  0  0  0  0  0
    3.9712  107.5853   26.0531 C   0  0  0  0  0  0  0  0  0  0  0  0
   -0.2272  107.8380   21.1114 C   0  0  0  0  0  0  0  0  0  0  0  0
   -4.4834  109.7065   23.5326 O   0  0  0  0  0  0  0  0  0  0  0  0
  1  3  1  0
  1  8  1  0
  1 12  1  0
  1 22  1  0
  2  6  1  0
  2 17  1  0
  4  6  2  0
  4  7  1  0
  4  9  1  0
  5 13  1  0
  5 16  1  0
  7 16  1  0
  7 22  1  0
  9 17  1  0
 10 18  1  0
 11 18  2  0
 11 21  1  0
 13 14  1  0
 14 15  1  0
 14 21  2  0
 15 19  2  0
 16 20  2  0
 17 23  2  0
 18 19  1  0
M  END
>  <ID>  (1) 
conformer_0

$$$$
