
     RDKit          3D

 27 31  0  0  0  0  0  0  0  0999 V2000
    6.2031  107.9065   25.7990 C   0  0  0  0  0  0  0  0  0  0  0  0
   -1.2063  107.5512   22.4216 N   0  0  0  0  0  0  0  0  0  0  0  0
   -2.5203  108.6794   20.7709 C   0  0  0  0  0  0  0  0  0  0  0  0
   -0.1342  106.0258   25.4786 C   0  0  0  0  0  0  0  0  0  0  0  0
   -4.4287  108.7283   23.9970 C   0  0  0  0  0  0  0  0  0  0  0  0
   -0.7303  107.6798   19.9568 N   0  0  0  0  0  0  0  0  0  0  0  0
   -0.7414  106.6199   24.3765 C   0  0  0  0  0  0  0  0  0  0  0  0
   -1.2239  108.4190   18.8511 C   0  0  0  0  0  0  0  0  0  0  0  0
   -0.1197  107.0734   23.2331 C   0  0  0  0  0  0  0  0  0  0  0  0
   -1.3766  107.8839   21.0941 C   0  0  0  0  0  0  0  0  0  0  0  0
   -3.5455  108.2773   22.9597 C   0  0  0  0  0  0  0  0  0  0  0  0
   -2.3242  109.2271   19.4248 C   0  0  0  0  0  0  0  0  0  0  0  0
    5.8887  109.6399   23.7491 N   0  0  0  0  0  0  0  0  0  0  0  0
    4.8291  108.8342   24.0767 C   0  0  0  0  0  0  0  0  0  0  0  0
   -3.6119  108.9251   21.6559 C   0  0  0  0  0  0  0  0  0  0  0  0
    3.1859  106.3360   25.3127 C   0  0  0  0  0  0  0  0  0  0  0  0
   -2.0451  106.9447   24.3771 N   0  0  0  0  0  0  0  0  0  0  0  0
   -5.4440  109.7123   23.5279 C   0  0  0  0  0  0  0  0  0  0  0  0
    1.0507  105.4866   24.9222 C   0  0  0  0  0  0  0  0  0  0  0  0
    1.2506  107.2880   23.4487 C   0  0  0  0  0  0  0  0  0  0  0  0
   -2.3102  107.5950   23.2368 C   0  0  0  0  0  0  0  0  0  0  0  0
    7.2548  108.7266   25.4866 C   0  0  0  0  0  0  0  0  0  0  0  0
    5.0253  107.9643   25.1329 C   0  0  0  0  0  0  0  0  0  0  0  0
    1.9104  106.5866   24.5855 N   0  0  0  0  0  0  0  0  0  0  0  0
    4.0066  107.2172   25.5379 N   0  0  0  0  0  0  0  0  0  0  0  0
    3.3377  105.2807   25.9716 O   0  0  0  0  0  0  0  0  0  0  0  0
    7.0602  109.6038   24.4387 C   0  0  0  0  0  0  0  0  0  0  0  0
  1 22  1  0
  1 23  2  0
  2  9  1  0
  2 10  1  0
  2 21  1  0
  3 10  2  0
  3 12  1  0
  3 15  1  0
  4  7  1  0
  4 19  1  0
  5 11  1  0
  5 18  1  0
  6  8  1  0
  6 10  1  0
  7  9  1  0
  7 17  1  0
  8 12  1  0
  9 20  1  0
 11 15  2  0
 11 21  1  0
 13 14  1  0
 13 27  2  0
 14 23  1  0
 16 24  1  0
 16 25  1  0
 16 26  2  0
 17 21  2  0
 19 24  1  0
 20 24  1  0
 22 27  1  0
 23 25  1  0
M  END
>  <ID>  (1) 
conformer_0

$$$$
