
     RDKit          3D

 28 32  0  0  0  0  0  0  0  0999 V2000
    0.5102  106.1916   24.2283 C   0  0  0  0  0  0  0  0  0  0  0  0
   -2.8849  108.3933   22.8100 C   0  0  0  0  0  0  0  0  0  0  0  0
   -2.4394  109.1584   19.1573 C   0  0  0  0  0  0  0  0  0  0  0  0
   -2.3728  108.5818   21.4396 C   0  0  0  0  0  0  0  0  0  0  0  0
    0.4409  106.8877   22.9760 C   0  0  0  0  0  0  0  0  0  0  0  0
    6.9520  109.4910   25.4369 C   0  0  0  0  0  0  0  0  0  0  0  0
    5.1792  107.2890   26.3070 C   0  0  0  0  0  0  0  0  0  0  0  0
    4.5823  107.5361   25.0881 C   0  0  0  0  0  0  0  0  0  0  0  0
   -1.1021  107.9607   21.2784 C   0  0  0  0  0  0  0  0  0  0  0  0
    4.9875  108.5582   24.2505 C   0  0  0  0  0  0  0  0  0  0  0  0
    1.5357  106.4851   23.2491 N   0  0  0  0  0  0  0  0  0  0  0  0
    3.4656  106.6145   24.8569 C   0  0  0  0  0  0  0  0  0  0  0  0
   -0.5362  107.9175   20.0416 C   0  0  0  0  0  0  0  0  0  0  0  0
    3.4749  105.8868   26.0752 O   0  0  0  0  0  0  0  0  0  0  0  0
   -1.2251  108.4891   18.9784 C   0  0  0  0  0  0  0  0  0  0  0  0
   -2.9621  106.4506   25.3131 O   0  0  0  0  0  0  0  0  0  0  0  0
    4.4349  106.3207   26.9459 N   0  0  0  0  0  0  0  0  0  0  0  0
   -3.0475  109.1922   20.4315 C   0  0  0  0  0  0  0  0  0  0  0  0
   -4.0478  107.2896   25.5497 C   0  0  0  0  0  0  0  0  0  0  0  0
    0.9618  105.3658   25.1173 O   0  0  0  0  0  0  0  0  0  0  0  0
    7.1481  108.8278   26.6340 C   0  0  0  0  0  0  0  0  0  0  0  0
   -0.6412  106.1269   24.9627 C   0  0  0  0  0  0  0  0  0  0  0  0
   -0.6946  107.4148   22.5209 C   0  0  0  0  0  0  0  0  0  0  0  0
    6.0434  109.3461   24.4641 C   0  0  0  0  0  0  0  0  0  0  0  0
   -1.7928  107.4986   23.4159 C   0  0  0  0  0  0  0  0  0  0  0  0
    6.2816  107.8212   26.8929 C   0  0  0  0  0  0  0  0  0  0  0  0
   -1.8157  106.7342   24.5996 C   0  0  0  0  0  0  0  0  0  0  0  0
    2.8337  106.6586   23.5324 C   0  0  0  0  0  0  0  0  0  0  0  0
  1  5  1  0
  1 20  1  0
  1 22  2  0
  2  4  1  0
  2 25  1  0
  3 15  1  0
  3 18  1  0
  4  9  1  0
  4 18  2  0
  5 11  1  0
  5 23  1  0
  6 21  2  0
  6 24  1  0
  7  8  1  0
  7 17  1  0
  7 26  2  0
  8 10  1  0
  8 12  2  0
  9 13  1  0
  9 23  2  0
 10 24  2  0
 11 28  1  0
 12 14  1  0
 12 28  1  0
 13 15  2  0
 14 17  1  0
 16 19  1  0
 16 27  1  0
 21 26  1  0
 22 27  1  0
 23 25  1  0
 25 27  2  0
M  END
>  <ID>  (1) 
conformer_0

$$$$
