
     RDKit          3D

 21 23  0  0  0  0  0  0  0  0999 V2000
    3.2089  105.9535   26.0460 C   0  0  0  0  0  0  0  0  0  0  0  0
    6.0256  108.1779   26.4696 C   0  0  0  0  0  0  0  0  0  0  0  0
   -1.9786  108.7777   20.0878 C   0  0  0  0  0  0  0  0  0  0  0  0
   -1.3500  108.9067   22.3846 C   0  0  0  0  0  0  0  0  0  0  0  0
    2.3804  106.1309   25.0307 C   0  0  0  0  0  0  0  0  0  0  0  0
   -0.3496  108.0148   22.1095 C   0  0  0  0  0  0  0  0  0  0  0  0
   -2.9865  109.3756   18.7656 Cl  0  0  0  0  0  0  0  0  0  0  0  0
   -2.1744  109.2658   21.3318 C   0  0  0  0  0  0  0  0  0  0  0  0
    6.8406  109.1519   26.0288 C   0  0  0  0  0  0  0  0  0  0  0  0
    2.4937  107.0288   23.9981 C   0  0  0  0  0  0  0  0  0  0  0  0
    3.4635  107.9741   23.8304 N   0  0  0  0  0  0  0  0  0  0  0  0
    4.2722  106.6783   26.3219 C   0  0  0  0  0  0  0  0  0  0  0  0
    0.4407  107.6745   23.1563 N   0  0  0  0  0  0  0  0  0  0  0  0
    5.4870  109.2994   24.0422 C   0  0  0  0  0  0  0  0  0  0  0  0
   -0.1666  107.4691   20.8641 C   0  0  0  0  0  0  0  0  0  0  0  0
   -1.0215  107.8772   19.8523 C   0  0  0  0  0  0  0  0  0  0  0  0
    4.5821  108.3097   24.5202 C   0  0  0  0  0  0  0  0  0  0  0  0
    7.9630  109.5943   26.8667 C   0  0  0  0  0  0  0  0  0  0  0  0
    6.5785  109.7118   24.7819 C   0  0  0  0  0  0  0  0  0  0  0  0
    1.5376  106.8850   22.9958 O   0  0  0  0  0  0  0  0  0  0  0  0
    4.9328  107.7197   25.7458 C   0  0  0  0  0  0  0  0  0  0  0  0
  1  5  1  0
  1 12  2  0
  2  9  2  0
  2 21  1  0
  3  7  1  0
  3  8  1  0
  3 16  2  0
  4  6  1  0
  4  8  2  0
  5 10  2  0
  6 13  2  3
  6 15  1  0
  9 18  1  0
  9 19  1  0
 10 11  1  0
 10 20  1  0
 11 17  2  0
 12 21  1  0
 13 20  1  0
 14 17  1  0
 14 19  2  0
 15 16  1  0
 17 21  1  0
M  END
>  <ID>  (1) 
conformer_0

$$$$
