
     RDKit          3D

 22 24  0  0  0  0  0  0  0  0999 V2000
   -3.0309  109.3074   19.4320 C   0  0  0  0  0  0  0  0  0  0  0  0
    5.7837  109.4582   24.0640 C   0  0  0  0  0  0  0  0  0  0  0  0
   -0.0483  108.1087   21.8607 N   0  0  0  0  0  0  0  0  0  0  0  0
    4.9424  108.5114   24.2656 C   0  0  0  0  0  0  0  0  0  0  0  0
   -1.0379  108.3767   21.1020 C   0  0  0  0  0  0  0  0  0  0  0  0
    2.2541  107.6955   22.1047 O   0  0  0  0  0  0  0  0  0  0  0  0
    1.5817  105.3567   24.8815 C   0  0  0  0  0  0  0  0  0  0  0  0
    6.6417  109.7755   25.0775 C   0  0  0  0  0  0  0  0  0  0  0  0
    2.3648  105.0153   25.9920 C   0  0  0  0  0  0  0  0  0  0  0  0
    3.0791  106.8822   24.4064 C   0  0  0  0  0  0  0  0  0  0  0  0
    1.9694  106.4225   24.0803 C   0  0  0  0  0  0  0  0  0  0  0  0
    1.4680  107.2159   22.9243 C   0  0  0  0  0  0  0  0  0  0  0  0
   -2.1693  108.9044   21.6488 C   0  0  0  0  0  0  0  0  0  0  0  0
    0.1866  107.5440   23.0098 N   0  0  0  0  0  0  0  0  0  0  0  0
    4.8965  107.7774   25.4678 C   0  0  0  0  0  0  0  0  0  0  0  0
    5.7118  108.1080   26.4788 C   0  0  0  0  0  0  0  0  0  0  0  0
    3.8606  106.7548   25.4825 C   0  0  0  0  0  0  0  0  0  0  0  0
   -1.9052  108.7236   18.9129 C   0  0  0  0  0  0  0  0  0  0  0  0
   -3.1904  109.3804   20.8042 C   0  0  0  0  0  0  0  0  0  0  0  0
    6.6234  109.1252   26.3180 C   0  0  0  0  0  0  0  0  0  0  0  0
    3.5069  105.7373   26.3349 N   0  0  0  0  0  0  0  0  0  0  0  0
   -0.8904  108.2355   19.7369 C   0  0  0  0  0  0  0  0  0  0  0  0
  1 18  2  0
  1 19  1  0
  2  4  2  0
  2  8  1  0
  3  5  1  0
  3 14  1  0
  4 15  1  0
  5 13  2  0
  5 22  1  0
  6 12  2  0
  7  9  2  0
  7 11  1  0
  8 20  2  0
  9 21  1  0
 10 11  2  0
 10 17  1  0
 11 12  1  0
 12 14  1  0
 13 19  1  0
 15 16  2  0
 15 17  1  0
 16 20  1  0
 17 21  2  0
 18 22  1  0
M  END
>  <ID>  (1) 
conformer_0

$$$$
