
     RDKit          3D

 29 33  0  0  0  0  0  0  0  0999 V2000
   -0.8167  107.0319   24.7824 N   0  0  0  0  0  0  0  0  0  0  0  0
    7.5968  109.8051   23.6480 O   0  0  0  0  0  0  0  0  0  0  0  0
    5.1822  108.0786   24.3710 C   0  0  0  0  0  0  0  0  0  0  0  0
    7.3330  109.3831   24.7972 C   0  0  0  0  0  0  0  0  0  0  0  0
    3.0909  106.2644   26.6337 C   0  0  0  0  0  0  0  0  0  0  0  0
   -2.8718  108.9340   21.5101 C   0  0  0  0  0  0  0  0  0  0  0  0
   -3.1829  109.3171   19.1399 C   0  0  0  0  0  0  0  0  0  0  0  0
   -2.3610  108.5932   23.8295 C   0  0  0  0  0  0  0  0  0  0  0  0
    8.0381  109.6660   26.0180 N   0  0  0  0  0  0  0  0  0  0  0  0
   -3.6962  109.3974   20.4503 C   0  0  0  0  0  0  0  0  0  0  0  0
    4.2452  107.2363   24.9040 C   0  0  0  0  0  0  0  0  0  0  0  0
   -1.6215  108.4630   21.1781 C   0  0  0  0  0  0  0  0  0  0  0  0
   -1.9129  108.7988   18.8818 C   0  0  0  0  0  0  0  0  0  0  0  0
    6.2559  108.2641   26.5255 C   0  0  0  0  0  0  0  0  0  0  0  0
    2.2940  106.1033   25.5211 C   0  0  0  0  0  0  0  0  0  0  0  0
    0.0603  107.8559   19.7696 O   0  0  0  0  0  0  0  0  0  0  0  0
    6.2146  108.5524   25.1642 C   0  0  0  0  0  0  0  0  0  0  0  0
   -3.2688  108.9934   22.8415 O   0  0  0  0  0  0  0  0  0  0  0  0
    2.8021  106.5257   23.1263 O   0  0  0  0  0  0  0  0  0  0  0  0
   -1.5610  107.3527   23.5449 C   0  0  0  0  0  0  0  0  0  0  0  0
    3.0722  106.6097   24.4019 C   0  0  0  0  0  0  0  0  0  0  0  0
   -1.1336  108.3452   19.9291 C   0  0  0  0  0  0  0  0  0  0  0  0
    7.3283  108.9411   27.2017 C   0  0  0  0  0  0  0  0  0  0  0  0
   -1.1613  106.1956   22.5599 C   0  0  0  0  0  0  0  0  0  0  0  0
    1.0040  105.8125   25.5369 N   0  0  0  0  0  0  0  0  0  0  0  0
    5.2935  107.4541   27.0710 C   0  0  0  0  0  0  0  0  0  0  0  0
   -0.1157  105.3463   23.3325 C   0  0  0  0  0  0  0  0  0  0  0  0
    4.2429  106.9664   26.3069 C   0  0  0  0  0  0  0  0  0  0  0  0
    0.0110  105.9447   24.7131 C   0  0  0  0  0  0  0  0  0  0  0  0
  1 20  1  0
  1 29  2  0
  2  4  2  0
  3 11  2  0
  3 17  1  0
  4  9  1  0
  4 17  1  0
  5 15  1  0
  5 28  1  0
  6 10  1  0
  6 12  2  0
  6 18  1  0
  7 10  2  0
  7 13  1  0
  8 18  1  0
  8 20  2  3
  9 23  1  0
 11 21  1  0
 11 28  1  0
 12 22  1  0
 13 22  2  0
 14 17  1  0
 14 23  1  0
 14 26  2  0
 15 21  1  0
 15 25  1  0
 16 22  1  0
 19 21  1  0
 20 24  1  0
 24 27  1  0
 25 29  1  0
 26 28  1  0
 27 29  1  0
M  END
>  <ID>  (1) 
conformer_0

$$$$
