
     RDKit          3D

 30 33  0  0  0  0  0  0  0  0999 V2000
   -1.8803  108.7245   18.4097 Cl  0  0  0  0  0  0  0  0  0  0  0  0
   -2.5649  108.9319   20.7016 C   0  0  0  0  0  0  0  0  0  0  0  0
    2.5031  106.4014   24.0868 C   0  0  0  0  0  0  0  0  0  0  0  0
    7.7632  110.0996   25.8482 O   0  0  0  0  0  0  0  0  0  0  0  0
   -0.6001  107.6320   20.1262 C   0  0  0  0  0  0  0  0  0  0  0  0
   -0.4610  107.2846   21.4118 C   0  0  0  0  0  0  0  0  0  0  0  0
   -3.4573  108.5889   24.1453 C   0  0  0  0  0  0  0  0  0  0  0  0
    1.4999  105.0683   22.3851 O   0  0  0  0  0  0  0  0  0  0  0  0
    4.4683  107.7038   24.4540 C   0  0  0  0  0  0  0  0  0  0  0  0
   -2.8294  107.1004   25.8764 C   0  0  0  0  0  0  0  0  0  0  0  0
   -4.3590  108.7893   25.1233 O   0  0  0  0  0  0  0  0  0  0  0  0
    2.7304  105.7942   25.3772 C   0  0  0  0  0  0  0  0  0  0  0  0
    8.0164  109.3619   23.7296 O   0  0  0  0  0  0  0  0  0  0  0  0
    1.6686  104.5781   26.1259 Cl  0  0  0  0  0  0  0  0  0  0  0  0
    1.3156  106.0196   23.2488 C   0  0  0  0  0  0  0  0  0  0  0  0
   -1.6766  108.4317   19.7832 C   0  0  0  0  0  0  0  0  0  0  0  0
   -3.8456  108.0680   26.3827 C   0  0  0  0  0  0  0  0  0  0  0  0
   -1.3922  107.6987   22.3637 C   0  0  0  0  0  0  0  0  0  0  0  0
    0.0538  106.4648   23.7733 C   0  0  0  0  0  0  0  0  0  0  0  0
   -3.3326  109.0620   22.9396 O   0  0  0  0  0  0  0  0  0  0  0  0
   -2.5217  107.5999   24.5097 N   0  0  0  0  0  0  0  0  0  0  0  0
    3.3636  107.3911   23.6579 C   0  0  0  0  0  0  0  0  0  0  0  0
    5.3393  108.6248   23.9627 O   0  0  0  0  0  0  0  0  0  0  0  0
    7.3149  109.7136   24.7096 C   0  0  0  0  0  0  0  0  0  0  0  0
   -2.4221  108.5510   22.0206 C   0  0  0  0  0  0  0  0  0  0  0  0
    5.7073  109.7704   24.5893 C   0  0  0  0  0  0  0  0  0  0  0  0
   -0.5218  106.3459   25.0049 C   0  0  0  0  0  0  0  0  0  0  0  0
    3.8265  106.1255   26.1439 C   0  0  0  0  0  0  0  0  0  0  0  0
    4.6811  107.0977   25.6751 C   0  0  0  0  0  0  0  0  0  0  0  0
   -1.2894  107.2480   23.7962 C   0  0  0  0  0  0  0  0  0  0  0  0
  1 16  1  0
  2 16  1  0
  2 25  2  0
  3 12  2  0
  3 15  1  0
  3 22  1  0
  4 24  2  0
  5  6  2  0
  5 16  1  0
  6 18  1  0
  7 11  1  0
  7 20  1  0
  7 21  1  0
  8 15  1  0
  9 22  2  0
  9 23  1  0
  9 29  1  0
 10 17  1  0
 10 21  1  0
 11 17  1  0
 12 14  1  0
 12 28  1  0
 13 24  1  0
 15 19  1  0
 18 25  1  0
 18 30  2  0
 19 27  2  0
 19 30  1  0
 20 25  1  0
 21 30  1  0
 23 26  1  0
 24 26  1  0
 28 29  2  0
M  END
>  <ID>  (1) 
conformer_0

$$$$
