
     RDKit          3D

 33 36  0  0  0  0  0  0  0  0999 V2000
   -0.1535  106.9465   24.4407 N   0  0  0  0  0  0  0  0  0  0  0  0
    7.4452  109.7914   23.5356 O   0  0  0  0  0  0  0  0  0  0  0  0
    1.2944  105.8778   25.7232 C   0  0  0  0  0  0  0  0  0  0  0  0
   -2.8049  108.4243   22.1273 C   0  0  0  0  0  0  0  0  0  0  0  0
   -4.0041  108.7770   22.7096 C   0  0  0  0  0  0  0  0  0  0  0  0
   -0.7084  107.5005   22.3959 C   0  0  0  0  0  0  0  0  0  0  0  0
    7.2339  110.1243   25.8493 O   0  0  0  0  0  0  0  0  0  0  0  0
    5.5829  110.8999   24.3939 N   0  0  0  0  0  0  0  0  0  0  0  0
    2.5886  102.3582   27.4930 C   0  0  0  0  0  0  0  0  0  0  0  0
   -0.9430  106.1461   26.4288 O   0  0  0  0  0  0  0  0  0  0  0  0
   -0.0946  106.2182   25.5518 C   0  0  0  0  0  0  0  0  0  0  0  0
   -1.9279  107.8191   23.1180 C   0  0  0  0  0  0  0  0  0  0  0  0
    0.4956  103.7419   26.2709 O   0  0  0  0  0  0  0  0  0  0  0  0
    3.0250  104.3926   26.4055 C   0  0  0  0  0  0  0  0  0  0  0  0
    3.5977  106.4479   25.0874 N   0  0  0  0  0  0  0  0  0  0  0  0
    3.2379  103.6699   27.6034 O   0  0  0  0  0  0  0  0  0  0  0  0
    3.7542  107.3643   24.1071 C   0  0  0  0  0  0  0  0  0  0  0  0
   -2.2123  108.4529   20.9171 C   0  0  0  0  0  0  0  0  0  0  0  0
    3.7966  105.6490   26.2579 C   0  0  0  0  0  0  0  0  0  0  0  0
   -3.9293  108.3861   24.0771 C   0  0  0  0  0  0  0  0  0  0  0  0
    5.6442  108.4778   24.8274 C   0  0  0  0  0  0  0  0  0  0  0  0
   -2.6610  107.8023   24.3073 C   0  0  0  0  0  0  0  0  0  0  0  0
   -0.2234  107.8547   19.9437 N   0  0  0  0  0  0  0  0  0  0  0  0
    1.5588  104.5285   26.1570 C   0  0  0  0  0  0  0  0  0  0  0  0
    6.5196  109.8622   24.6337 C   0  0  0  0  0  0  0  0  0  0  0  0
   -2.2916  108.7562   19.6381 C   0  0  0  0  0  0  0  0  0  0  0  0
   -3.4772  109.3764   19.0101 Cl  0  0  0  0  0  0  0  0  0  0  0  0
    2.2386  106.4009   24.6983 C   0  0  0  0  0  0  0  0  0  0  0  0
   -1.1028  108.4179   18.9796 C   0  0  0  0  0  0  0  0  0  0  0  0
   -0.7788  107.8232   21.1004 C   0  0  0  0  0  0  0  0  0  0  0  0
    4.4177  108.5074   24.2418 N   0  0  0  0  0  0  0  0  0  0  0  0
    4.6817  105.9064   27.1162 O   0  0  0  0  0  0  0  0  0  0  0  0
    0.3142  106.9112   23.0983 C   0  0  0  0  0  0  0  0  0  0  0  0
  1 11  1  0
  1 33  1  0
  2 25  1  0
  3 11  1  0
  3 24  1  0
  3 28  1  0
  4  5  1  0
  4 12  2  0
  4 18  1  0
  5 20  1  0
  6 12  1  0
  6 30  2  0
  6 33  1  0
  7 25  1  0
  8 25  1  0
  9 16  1  0
 10 11  2  0
 12 22  1  0
 13 24  1  0
 14 16  1  0
 14 19  1  0
 14 24  1  0
 15 17  1  0
 15 19  1  0
 15 28  1  0
 17 31  1  0
 18 26  2  0
 18 30  1  0
 19 32  2  0
 20 22  1  0
 21 25  1  0
 21 31  1  0
 23 29  1  0
 23 30  1  0
 26 27  1  0
 26 29  1  0
M  END
>  <ID>  (1) 
conformer_0

$$$$
