
     RDKit          3D

 24 25  0  0  0  0  0  0  0  0999 V2000
   -2.6275  109.2229   19.7138 C   0  0  0  0  0  0  0  0  0  0  0  0
    0.7069  106.2521   24.3735 C   0  0  0  0  0  0  0  0  0  0  0  0
    8.4948  109.0740   25.2506 O   0  0  0  0  0  0  0  0  0  0  0  0
   -2.0800  106.8266   23.5193 O   0  0  0  0  0  0  0  0  0  0  0  0
   -2.2072  108.3715   21.8546 C   0  0  0  0  0  0  0  0  0  0  0  0
   -1.4253  107.5979   22.7462 C   0  0  0  0  0  0  0  0  0  0  0  0
    1.8209  106.1351   23.4744 C   0  0  0  0  0  0  0  0  0  0  0  0
    4.5803  107.1108   25.8716 C   0  0  0  0  0  0  0  0  0  0  0  0
    0.8420  107.1883   23.3721 C   0  0  0  0  0  0  0  0  0  0  0  0
   -0.0784  107.5071   22.4615 O   0  0  0  0  0  0  0  0  0  0  0  0
    3.4802  107.9809   23.4663 C   0  0  0  0  0  0  0  0  0  0  0  0
    7.1056  110.1056   23.8581 O   0  0  0  0  0  0  0  0  0  0  0  0
    2.9805  106.8577   24.1055 C   0  0  0  0  0  0  0  0  0  0  0  0
    6.3603  108.6750   27.3968 C   0  0  0  0  0  0  0  0  0  0  0  0
    5.1145  108.2393   25.2471 C   0  0  0  0  0  0  0  0  0  0  0  0
   -2.4718  108.8785   18.2665 C   0  0  0  0  0  0  0  0  0  0  0  0
    7.3153  109.4464   24.9442 C   0  0  0  0  0  0  0  0  0  0  0  0
    6.1983  109.0322   25.9308 C   0  0  0  0  0  0  0  0  0  0  0  0
   -3.8760  109.3629   20.4848 C   0  0  0  0  0  0  0  0  0  0  0  0
    3.5201  106.4290   25.2912 C   0  0  0  0  0  0  0  0  0  0  0  0
   -1.7310  108.3033   20.5124 C   0  0  0  0  0  0  0  0  0  0  0  0
   -0.7105  107.6696   19.9608 O   0  0  0  0  0  0  0  0  0  0  0  0
   -3.5551  108.8419   21.8875 C   0  0  0  0  0  0  0  0  0  0  0  0
    4.5509  108.6129   24.0275 C   0  0  0  0  0  0  0  0  0  0  0  0
  1 16  1  0
  1 19  1  0
  1 21  1  0
  2  7  1  0
  2  9  1  0
  3 17  2  0
  4  6  2  0
  5  6  1  0
  5 21  1  0
  5 23  1  0
  6 10  1  0
  7 13  1  0
  8 15  2  0
  8 20  1  0
  9 10  1  0
 11 13  1  0
 11 24  2  0
 12 17  1  0
 13 20  2  0
 14 18  1  0
 15 18  1  0
 15 24  1  0
 17 18  1  0
 19 23  1  0
 21 22  1  0
M  END
>  <ID>  (1) 
conformer_0

$$$$
