
     RDKit          3D

 25 26  0  0  0  0  0  0  0  0999 V2000
   -0.2222  105.7681   25.7222 C   0  0  0  0  0  0  0  0  0  0  0  0
    6.7680  110.2551   25.4377 O   0  0  0  0  0  0  0  0  0  0  0  0
    3.4801  106.1326   25.4992 C   0  0  0  0  0  0  0  0  0  0  0  0
    4.6583  106.4354   26.0982 C   0  0  0  0  0  0  0  0  0  0  0  0
    6.6120  111.0373   23.3705 O   0  0  0  0  0  0  0  0  0  0  0  0
    0.5268  106.4178   24.4499 N   0  0  0  0  0  0  0  0  0  0  0  0
   -1.0843  108.2836   21.8765 C   0  0  0  0  0  0  0  0  0  0  0  0
   -2.9629  109.1184   20.6973 C   0  0  0  0  0  0  0  0  0  0  0  0
    5.3870  107.4915   25.5686 C   0  0  0  0  0  0  0  0  0  0  0  0
   -1.0696  108.2090   19.4997 C   0  0  0  0  0  0  0  0  0  0  0  0
    3.7414  107.8631   23.8788 C   0  0  0  0  0  0  0  0  0  0  0  0
    0.3450  104.3431   25.7629 C   0  0  0  0  0  0  0  0  0  0  0  0
    5.7164  109.0886   23.7816 O   0  0  0  0  0  0  0  0  0  0  0  0
    4.9586  108.1683   24.4370 C   0  0  0  0  0  0  0  0  0  0  0  0
   -0.6522  106.6101   23.5608 C   0  0  0  0  0  0  0  0  0  0  0  0
    1.8607  103.8398   25.9296 C   0  0  0  0  0  0  0  0  0  0  0  0
    2.9974  106.8362   24.4140 C   0  0  0  0  0  0  0  0  0  0  0  0
   -0.4290  107.9396   20.6862 C   0  0  0  0  0  0  0  0  0  0  0  0
   -2.3199  108.8168   19.5198 C   0  0  0  0  0  0  0  0  0  0  0  0
   -0.4923  108.0798   23.1970 C   0  0  0  0  0  0  0  0  0  0  0  0
    6.3785  110.1471   24.2693 C   0  0  0  0  0  0  0  0  0  0  0  0
   -2.9582  109.1306   18.3333 F   0  0  0  0  0  0  0  0  0  0  0  0
    1.8157  106.5404   22.4820 O   0  0  0  0  0  0  0  0  0  0  0  0
    1.7229  106.5631   23.7411 C   0  0  0  0  0  0  0  0  0  0  0  0
   -2.3268  108.8203   21.8691 C   0  0  0  0  0  0  0  0  0  0  0  0
  1  6  1  0
  1 12  1  0
  2 21  2  0
  3  4  2  0
  3 17  1  0
  4  9  1  0
  5 21  1  0
  6 15  1  0
  6 24  1  0
  7 18  1  0
  7 20  1  0
  7 25  2  0
  8 19  2  0
  8 25  1  0
  9 14  1  0
 10 18  2  0
 10 19  1  0
 11 14  2  0
 11 17  1  0
 12 16  1  0
 13 14  1  0
 13 21  1  0
 15 20  1  0
 17 24  1  0
 19 22  1  0
 23 24  2  0
M  END
>  <ID>  (1) 
conformer_0

$$$$
