
     RDKit          3D

 21 22  0  0  0  0  0  0  0  0999 V2000
    3.5476  106.1652   23.7033 O   0  0  0  0  0  0  0  0  0  0  0  0
    4.7269  107.7924   25.6194 C   0  0  0  0  0  0  0  0  0  0  0  0
    7.0585  108.3504   26.2295 C   0  0  0  0  0  0  0  0  0  0  0  0
    1.1236  106.2881   22.7030 O   0  0  0  0  0  0  0  0  0  0  0  0
    4.5621  109.0067   24.8407 C   0  0  0  0  0  0  0  0  0  0  0  0
   -1.1011  108.1708   20.0018 C   0  0  0  0  0  0  0  0  0  0  0  0
    3.5172  107.0616   25.8993 C   0  0  0  0  0  0  0  0  0  0  0  0
   -0.3663  107.8339   21.1385 C   0  0  0  0  0  0  0  0  0  0  0  0
   -0.6152  107.8988   18.7351 N   0  0  0  0  0  0  0  0  0  0  0  0
   -2.7872  109.1814   21.3585 C   0  0  0  0  0  0  0  0  0  0  0  0
   -2.2977  108.8402   20.1085 C   0  0  0  0  0  0  0  0  0  0  0  0
    5.8149  109.7265   24.6182 C   0  0  0  0  0  0  0  0  0  0  0  0
   -0.1316  108.0398   23.5484 N   0  0  0  0  0  0  0  0  0  0  0  0
   -0.8322  108.1967   22.3732 C   0  0  0  0  0  0  0  0  0  0  0  0
    6.7779  109.6937   25.6395 N   0  0  0  0  0  0  0  0  0  0  0  0
    5.6700  107.9092   26.7492 C   0  0  0  0  0  0  0  0  0  0  0  0
    0.9175  107.2345   23.4898 C   0  0  0  0  0  0  0  0  0  0  0  0
    2.8520  106.7467   24.6743 C   0  0  0  0  0  0  0  0  0  0  0  0
   -2.0331  108.8590   22.5014 C   0  0  0  0  0  0  0  0  0  0  0  0
    6.3560  109.9057   23.4061 O   0  0  0  0  0  0  0  0  0  0  0  0
    1.6621  107.5785   24.5861 N   0  0  0  0  0  0  0  0  0  0  0  0
  1 18  2  0
  2  5  1  0
  2  7  1  0
  2 16  1  0
  3 15  1  0
  3 16  1  0
  4 17  2  0
  5 12  1  0
  6  8  2  0
  6  9  1  0
  6 11  1  0
  7 18  1  0
  8 14  1  0
 10 11  2  0
 10 19  1  0
 12 15  1  0
 12 20  2  0
 13 14  2  3
 13 17  1  0
 14 19  1  0
 17 21  1  0
 18 21  1  0
M  END
>  <ID>  (1) 
conformer_0

$$$$
