
     RDKit          3D

 32 36  0  0  0  0  0  0  0  0999 V2000
    0.9092  106.7741   24.7392 C   0  0  0  0  0  0  0  0  0  0  0  0
    6.1155  109.9193   23.9188 O   0  0  0  0  0  0  0  0  0  0  0  0
   -3.2080  108.7705   24.3735 O   0  0  0  0  0  0  0  0  0  0  0  0
    2.1910  104.0523   26.9081 C   0  0  0  0  0  0  0  0  0  0  0  0
   -2.7559  108.8644   18.0645 C   0  0  0  0  0  0  0  0  0  0  0  0
   -0.9779  107.7973   21.7454 C   0  0  0  0  0  0  0  0  0  0  0  0
   -2.9355  108.3713   20.4163 C   0  0  0  0  0  0  0  0  0  0  0  0
   -0.2112  107.9276   20.6278 C   0  0  0  0  0  0  0  0  0  0  0  0
    1.1131  104.8615   26.2216 C   0  0  0  0  0  0  0  0  0  0  0  0
    8.6163  109.4745   26.6643 C   0  0  0  0  0  0  0  0  0  0  0  0
   -2.5462  107.7431   24.1494 C   0  0  0  0  0  0  0  0  0  0  0  0
   -0.7749  108.2762   19.4080 C   0  0  0  0  0  0  0  0  0  0  0  0
    7.8397  109.6716   28.0068 C   0  0  0  0  0  0  0  0  0  0  0  0
    1.5095  105.3741   24.8440 C   0  0  0  0  0  0  0  0  0  0  0  0
    4.1120  105.7412   26.4167 C   0  0  0  0  0  0  0  0  0  0  0  0
    7.4255  109.1731   25.7487 C   0  0  0  0  0  0  0  0  0  0  0  0
    5.5303  107.4182   26.1099 C   0  0  0  0  0  0  0  0  0  0  0  0
    0.9209  107.1068   23.3211 C   0  0  0  0  0  0  0  0  0  0  0  0
   -1.1851  107.5008   24.1341 N   0  0  0  0  0  0  0  0  0  0  0  0
    8.1723  109.0853   23.4941 N   0  0  0  0  0  0  0  0  0  0  0  0
    6.5057  108.3479   26.4691 N   0  0  0  0  0  0  0  0  0  0  0  0
    4.6933  107.2615   25.0059 C   0  0  0  0  0  0  0  0  0  0  0  0
    6.7168  108.6476   27.8889 C   0  0  0  0  0  0  0  0  0  0  0  0
   -0.3452  107.5196   22.9984 C   0  0  0  0  0  0  0  0  0  0  0  0
    2.8538  105.5745   24.2393 C   0  0  0  0  0  0  0  0  0  0  0  0
   -2.3167  108.0342   21.5940 C   0  0  0  0  0  0  0  0  0  0  0  0
    3.8216  106.2151   25.1701 C   0  0  0  0  0  0  0  0  0  0  0  0
   -2.1335  108.5015   19.3128 C   0  0  0  0  0  0  0  0  0  0  0  0
    3.4712  104.6938   27.2433 C   0  0  0  0  0  0  0  0  0  0  0  0
   -0.4860  106.8172   25.1808 C   0  0  0  0  0  0  0  0  0  0  0  0
    7.1951  109.4726   24.2775 C   0  0  0  0  0  0  0  0  0  0  0  0
    5.1926  106.4412   26.9220 N   0  0  0  0  0  0  0  0  0  0  0  0
  1 14  1  0
  1 18  1  0
  1 30  1  0
  2 31  2  0
  3 11  2  0
  4  9  1  0
  4 29  1  0
  5 28  1  0
  6  8  2  0
  6 24  1  0
  6 26  1  0
  7 26  2  0
  7 28  1  0
  8 12  1  0
  9 14  1  0
 10 13  1  0
 10 16  1  0
 11 19  1  0
 12 28  2  0
 13 23  1  0
 14 25  1  0
 15 27  2  0
 15 29  1  0
 15 32  1  0
 16 21  1  0
 16 31  1  0
 17 21  1  0
 17 22  1  0
 17 32  2  0
 18 24  1  0
 19 24  1  0
 19 30  1  0
 20 31  1  0
 21 23  1  0
 22 27  1  0
 25 27  1  0
M  END
>  <ID>  (1) 
conformer_0

$$$$
