
     RDKit          3D

 28 30  0  0  0  0  0  0  0  0999 V2000
    7.6606  110.0031   26.9129 O   0  0  0  0  0  0  0  0  0  0  0  0
    7.6245  109.2281   25.8750 C   0  0  0  0  0  0  0  0  0  0  0  0
   -0.8737  108.2446   18.5090 C   0  0  0  0  0  0  0  0  0  0  0  0
    0.3327  105.8860   24.5272 C   0  0  0  0  0  0  0  0  0  0  0  0
   -0.2820  107.2308   24.4939 N   0  0  0  0  0  0  0  0  0  0  0  0
   -0.9052  107.6733   23.3550 C   0  0  0  0  0  0  0  0  0  0  0  0
    8.6724  109.0963   25.1373 O   0  0  0  0  0  0  0  0  0  0  0  0
    2.2226  105.1916   23.0067 O   0  0  0  0  0  0  0  0  0  0  0  0
   -2.9571  109.6487   18.9362 C   0  0  0  0  0  0  0  0  0  0  0  0
   -2.9062  108.5342   22.4574 N   0  0  0  0  0  0  0  0  0  0  0  0
    5.5955  108.7068   24.4695 C   0  0  0  0  0  0  0  0  0  0  0  0
    3.7982  106.6534   25.8716 C   0  0  0  0  0  0  0  0  0  0  0  0
    2.2725  107.2063   24.1674 N   0  0  0  0  0  0  0  0  0  0  0  0
    3.4970  107.3532   24.7326 C   0  0  0  0  0  0  0  0  0  0  0  0
   -2.3536  108.3751   18.4013 C   0  0  0  0  0  0  0  0  0  0  0  0
   -2.9787  107.4027   24.4261 O   0  0  0  0  0  0  0  0  0  0  0  0
    4.9005  106.7763   26.6342 C   0  0  0  0  0  0  0  0  0  0  0  0
   -2.3637  108.6948   21.2025 C   0  0  0  0  0  0  0  0  0  0  0  0
    5.9710  107.5669   26.5369 C   0  0  0  0  0  0  0  0  0  0  0  0
    4.4077  108.2004   24.1414 C   0  0  0  0  0  0  0  0  0  0  0  0
    1.6713  106.0389   23.8093 C   0  0  0  0  0  0  0  0  0  0  0  0
   -2.2906  107.8498   23.4170 C   0  0  0  0  0  0  0  0  0  0  0  0
    0.4552  105.5692   25.9249 O   0  0  0  0  0  0  0  0  0  0  0  0
   -1.0094  108.2575   21.0141 C   0  0  0  0  0  0  0  0  0  0  0  0
   -0.2492  107.9839   22.1871 C   0  0  0  0  0  0  0  0  0  0  0  0
    6.3807  108.4874   25.6220 C   0  0  0  0  0  0  0  0  0  0  0  0
   -3.1691  109.6230   20.3801 C   0  0  0  0  0  0  0  0  0  0  0  0
   -0.2067  108.2739   19.7817 C   0  0  0  0  0  0  0  0  0  0  0  0
  1  2  2  0
  2  7  1  0
  2 26  1  0
  3 15  1  0
  3 28  2  0
  4  5  1  0
  4 21  1  0
  4 23  1  0
  5  6  1  0
  6 22  1  0
  6 25  2  0
  8 21  2  0
  9 15  1  0
  9 27  1  0
 10 18  2  0
 10 22  1  0
 11 20  2  0
 11 26  1  0
 12 14  2  0
 12 17  1  0
 13 14  1  0
 13 21  1  0
 14 20  1  0
 16 22  2  0
 17 19  2  0
 18 24  1  0
 18 27  1  0
 19 26  1  0
 24 25  1  0
 24 28  1  0
M  END
>  <ID>  (1) 
conformer_0

$$$$
