
     RDKit          3D

 21 23  0  0  0  0  0  0  0  0999 V2000
   -1.9813  108.6155   18.7540 C   0  0  0  0  0  0  0  0  0  0  0  0
    4.5698  108.8760   23.3896 N   0  0  0  0  0  0  0  0  0  0  0  0
    0.1904  106.9699   22.6072 O   0  0  0  0  0  0  0  0  0  0  0  0
   -3.2507  109.2223   20.6831 C   0  0  0  0  0  0  0  0  0  0  0  0
    0.1997  107.9313   21.6417 C   0  0  0  0  0  0  0  0  0  0  0  0
    1.2600  108.5212   21.1321 O   0  0  0  0  0  0  0  0  0  0  0  0
    1.7040  106.0795   24.2607 C   0  0  0  0  0  0  0  0  0  0  0  0
    4.8252  107.4023   25.7259 C   0  0  0  0  0  0  0  0  0  0  0  0
    5.6679  109.1475   24.2174 C   0  0  0  0  0  0  0  0  0  0  0  0
    2.8314  106.1439   25.0223 C   0  0  0  0  0  0  0  0  0  0  0  0
    1.4628  106.9857   23.2571 C   0  0  0  0  0  0  0  0  0  0  0  0
    3.5284  108.0153   23.6892 C   0  0  0  0  0  0  0  0  0  0  0  0
    2.3876  107.9828   22.9015 C   0  0  0  0  0  0  0  0  0  0  0  0
   -3.1012  109.1815   19.3064 C   0  0  0  0  0  0  0  0  0  0  0  0
   -0.9658  108.1311   19.5488 C   0  0  0  0  0  0  0  0  0  0  0  0
    6.6492  109.7372   23.7693 O   0  0  0  0  0  0  0  0  0  0  0  0
   -1.0237  108.2100   20.9069 C   0  0  0  0  0  0  0  0  0  0  0  0
    3.7229  107.1814   24.7689 C   0  0  0  0  0  0  0  0  0  0  0  0
    5.7259  108.5354   25.5572 C   0  0  0  0  0  0  0  0  0  0  0  0
    6.5860  109.1931   26.5736 C   0  0  0  0  0  0  0  0  0  0  0  0
   -2.2044  108.7121   21.5158 C   0  0  0  0  0  0  0  0  0  0  0  0
  1 14  2  0
  1 15  1  0
  2  9  1  0
  2 12  1  0
  3  5  1  0
  3 11  1  0
  4 14  1  0
  4 21  2  0
  5  6  2  0
  5 17  1  0
  7 10  2  0
  7 11  1  0
  8 18  1  0
  8 19  1  0
  9 16  2  0
  9 19  1  0
 10 18  1  0
 11 13  1  0
 12 13  1  0
 12 18  2  0
 15 17  2  0
 17 21  1  0
 19 20  1  0
M  END
>  <ID>  (1) 
conformer_0

$$$$
