
     RDKit          3D

 21 22  0  0  0  0  0  0  0  0999 V2000
    3.6768  106.7688   26.0213 C   0  0  0  0  0  0  0  0  0  0  0  0
   -1.3680  107.8082   20.5272 C   0  0  0  0  0  0  0  0  0  0  0  0
    2.7966  104.3483   26.2865 O   0  0  0  0  0  0  0  0  0  0  0  0
   -2.5019  109.1995   18.8227 C   0  0  0  0  0  0  0  0  0  0  0  0
    0.8351  106.4202   23.2884 C   0  0  0  0  0  0  0  0  0  0  0  0
    6.7692  109.4646   24.6099 C   0  0  0  0  0  0  0  0  0  0  0  0
    5.0327  107.3841   26.0029 C   0  0  0  0  0  0  0  0  0  0  0  0
    3.1608  106.1838   24.6952 C   0  0  0  0  0  0  0  0  0  0  0  0
   -0.6953  106.8482   21.3435 O   0  0  0  0  0  0  0  0  0  0  0  0
    2.2204  107.0260   23.7158 C   0  0  0  0  0  0  0  0  0  0  0  0
    4.7121  108.8327   25.6230 C   0  0  0  0  0  0  0  0  0  0  0  0
    5.3817  109.1024   24.3832 O   0  0  0  0  0  0  0  0  0  0  0  0
   -2.8390  109.7257   20.2009 C   0  0  0  0  0  0  0  0  0  0  0  0
   -1.8168  109.0757   21.1889 C   0  0  0  0  0  0  0  0  0  0  0  0
    0.0067  106.4073   24.6498 C   0  0  0  0  0  0  0  0  0  0  0  0
    0.0762  107.3558   22.3776 C   0  0  0  0  0  0  0  0  0  0  0  0
    0.9116  105.9130   25.7909 C   0  0  0  0  0  0  0  0  0  0  0  0
    7.1308  109.9788   25.7289 O   0  0  0  0  0  0  0  0  0  0  0  0
    2.1511  105.0447   25.2053 C   0  0  0  0  0  0  0  0  0  0  0  0
   -1.3869  108.1194   19.0456 C   0  0  0  0  0  0  0  0  0  0  0  0
    7.6007  109.3634   23.6275 O   0  0  0  0  0  0  0  0  0  0  0  0
  1  7  1  0
  1  8  1  0
  2  9  1  0
  2 14  1  0
  2 20  1  0
  3 19  1  0
  4 13  1  0
  4 20  1  0
  5 10  1  0
  5 15  1  0
  5 16  1  0
  6 12  1  0
  6 18  2  0
  6 21  1  0
  7 11  1  0
  8 10  1  0
  8 19  1  0
  9 16  1  0
 11 12  1  0
 13 14  1  0
 15 17  1  0
 17 19  1  0
M  END
>  <ID>  (1) 
conformer_0

$$$$
