
     RDKit          3D

 32 35  0  0  0  0  0  0  0  0999 V2000
    2.5146  105.7085   24.0919 N   0  0  0  0  0  0  0  0  0  0  0  0
   -4.2766  108.5682   23.4619 C   0  0  0  0  0  0  0  0  0  0  0  0
   -0.5993  107.9133   21.3982 C   0  0  0  0  0  0  0  0  0  0  0  0
    3.9659  104.9519   27.9316 O   0  0  0  0  0  0  0  0  0  0  0  0
    6.1964  107.8117   26.8374 C   0  0  0  0  0  0  0  0  0  0  0  0
   -3.9934  109.2173   20.7438 O   0  0  0  0  0  0  0  0  0  0  0  0
    5.5585  108.2242   25.5767 C   0  0  0  0  0  0  0  0  0  0  0  0
    4.5221  107.3073   25.1111 C   0  0  0  0  0  0  0  0  0  0  0  0
   -2.9940  108.4398   22.7808 C   0  0  0  0  0  0  0  0  0  0  0  0
    4.4583  106.0055   27.2343 C   0  0  0  0  0  0  0  0  0  0  0  0
   -1.7487  108.2621   20.6913 C   0  0  0  0  0  0  0  0  0  0  0  0
    5.9896  110.4277   24.5345 C   0  0  0  0  0  0  0  0  0  0  0  0
    3.2244  105.2733   25.2062 N   0  0  0  0  0  0  0  0  0  0  0  0
    6.3482  108.9932   24.6344 C   0  0  0  0  0  0  0  0  0  0  0  0
    1.6986  107.5583   23.0156 N   0  0  0  0  0  0  0  0  0  0  0  0
    2.7170  106.9715   23.7043 C   0  0  0  0  0  0  0  0  0  0  0  0
    6.5552  111.0010   23.3579 O   0  0  0  0  0  0  0  0  0  0  0  0
   -4.9344  109.7945   23.4752 O   0  0  0  0  0  0  0  0  0  0  0  0
   -1.7324  108.2662   19.1783 C   0  0  0  0  0  0  0  0  0  0  0  0
    3.8908  107.5621   23.9329 O   0  0  0  0  0  0  0  0  0  0  0  0
    3.2348  103.8604   27.2454 C   0  0  0  0  0  0  0  0  0  0  0  0
    0.4590  107.5449   23.4916 N   0  0  0  0  0  0  0  0  0  0  0  0
   -0.3510  108.4187   18.6549 C   0  0  0  0  0  0  0  0  0  0  0  0
    5.5317  106.8223   27.6708 C   0  0  0  0  0  0  0  0  0  0  0  0
   -0.6383  107.8319   22.7682 C   0  0  0  0  0  0  0  0  0  0  0  0
    4.0096  106.2058   25.8716 C   0  0  0  0  0  0  0  0  0  0  0  0
   -2.9113  108.6359   21.4093 C   0  0  0  0  0  0  0  0  0  0  0  0
    2.4998  104.1756   25.9522 C   0  0  0  0  0  0  0  0  0  0  0  0
    7.5244  108.6986   24.1513 O   0  0  0  0  0  0  0  0  0  0  0  0
    6.2648  106.3671   28.7680 F   0  0  0  0  0  0  0  0  0  0  0  0
   -1.8341  108.0346   23.4614 C   0  0  0  0  0  0  0  0  0  0  0  0
   -2.7628  107.7074   18.5659 O   0  0  0  0  0  0  0  0  0  0  0  0
  1 13  1  0
  1 16  2  0
  2  9  1  0
  2 18  1  0
  3 11  2  0
  3 25  1  0
  4 10  1  0
  4 21  1  0
  5  7  1  0
  5 24  2  0
  6 27  1  0
  7  8  1  0
  7 14  1  0
  8 20  1  0
  8 26  1  0
  9 27  2  0
  9 31  1  0
 10 24  1  0
 10 26  2  0
 11 19  1  0
 11 27  1  0
 12 14  1  0
 12 17  1  0
 13 26  1  0
 13 28  1  0
 14 29  1  0
 15 16  1  0
 15 22  1  0
 16 20  1  0
 19 23  1  0
 19 32  1  0
 21 28  1  0
 22 25  2  3
 24 30  1  0
 25 31  1  0
M  END
>  <ID>  (1) 
conformer_0

$$$$
