
     RDKit          3D

 16 17  0  0  0  0  0  0  0  0999 V2000
    3.4093  106.6247   24.8033 C   0  0  0  0  0  0  0  0  0  0  0  0
    4.8009  108.4348   24.4824 C   0  0  0  0  0  0  0  0  0  0  0  0
    6.9422  108.9677   25.2931 O   0  0  0  0  0  0  0  0  0  0  0  0
    4.5964  107.2624   25.2244 C   0  0  0  0  0  0  0  0  0  0  0  0
    5.7640  110.6206   24.4580 O   0  0  0  0  0  0  0  0  0  0  0  0
   -1.8914  108.9161   21.1675 N   0  0  0  0  0  0  0  0  0  0  0  0
   -0.9031  107.9569   21.2960 C   0  0  0  0  0  0  0  0  0  0  0  0
    3.7277  108.5125   23.5764 C   0  0  0  0  0  0  0  0  0  0  0  0
   -0.5580  107.4496   22.5766 C   0  0  0  0  0  0  0  0  0  0  0  0
    5.8762  109.3649   24.7314 C   0  0  0  0  0  0  0  0  0  0  0  0
   -1.1617  108.3586   19.0667 C   0  0  0  0  0  0  0  0  0  0  0  0
    1.7269  107.0882   23.1980 N   0  0  0  0  0  0  0  0  0  0  0  0
    0.6197  107.8893   23.1377 C   0  0  0  0  0  0  0  0  0  0  0  0
   -0.4372  107.6018   20.0558 C   0  0  0  0  0  0  0  0  0  0  0  0
   -2.0475  109.1906   19.7311 C   0  0  0  0  0  0  0  0  0  0  0  0
    2.8636  107.3958   23.7778 C   0  0  0  0  0  0  0  0  0  0  0  0
  1  4  1  0
  1 16  1  0
  2  4  1  0
  2  8  1  0
  2 10  1  0
  3 10  2  0
  5 10  1  0
  6  7  1  0
  6 15  1  0
  7  9  1  0
  7 14  1  0
  8 16  1  0
  9 13  1  0
 11 14  1  0
 11 15  1  0
 12 13  2  3
 12 16  1  0
M  END
>  <ID>  (1) 
conformer_0

$$$$
