
     RDKit          3D

 19 19  0  0  0  0  0  0  0  0999 V2000
    4.8527  107.6242   25.0039 O   0  0  0  0  0  0  0  0  0  0  0  0
    0.7404  107.5207   23.0732 C   0  0  0  0  0  0  0  0  0  0  0  0
   -1.7007  108.1444   21.8719 C   0  0  0  0  0  0  0  0  0  0  0  0
   -0.3811  107.6806   24.0013 C   0  0  0  0  0  0  0  0  0  0  0  0
    3.0198  107.6026   23.5840 C   0  0  0  0  0  0  0  0  0  0  0  0
   -2.7641  109.1833   19.0590 C   0  0  0  0  0  0  0  0  0  0  0  0
   -1.6456  107.8285   23.3060 C   0  0  0  0  0  0  0  0  0  0  0  0
    6.1367  109.7530   24.5194 C   0  0  0  0  0  0  0  0  0  0  0  0
    3.4231  107.6405   25.0035 C   0  0  0  0  0  0  0  0  0  0  0  0
   -1.5387  108.5837   18.7722 C   0  0  0  0  0  0  0  0  0  0  0  0
    5.7149  110.9520   24.4816 O   0  0  0  0  0  0  0  0  0  0  0  0
    5.3972  108.8526   25.5251 C   0  0  0  0  0  0  0  0  0  0  0  0
   -0.7114  107.8032   20.9352 C   0  0  0  0  0  0  0  0  0  0  0  0
   -3.3482  109.2581   20.3125 C   0  0  0  0  0  0  0  0  0  0  0  0
   -2.7177  107.5533   23.9683 O   0  0  0  0  0  0  0  0  0  0  0  0
    7.0706  109.3912   23.8044 O   0  0  0  0  0  0  0  0  0  0  0  0
   -0.6629  107.9880   19.6184 C   0  0  0  0  0  0  0  0  0  0  0  0
   -2.8729  108.8115   21.4760 C   0  0  0  0  0  0  0  0  0  0  0  0
    1.8001  106.6399   23.5572 C   0  0  0  0  0  0  0  0  0  0  0  0
  1  9  1  0
  1 12  1  0
  2  4  1  0
  2 19  1  0
  3  7  1  0
  3 13  1  0
  3 18  1  0
  4  7  1  0
  5  9  1  0
  5 19  1  0
  6 10  2  0
  6 14  1  0
  7 15  1  0
  8 11  2  0
  8 12  1  0
  8 16  1  0
 10 17  1  0
 13 17  2  0
 14 18  2  0
M  END
>  <ID>  (1) 
conformer_0

$$$$
