
     RDKit          3D

 35 41  0  0  0  0  0  0  0  0999 V2000
   -0.7040  108.4892   20.2992 C   0  0  0  0  0  0  0  0  0  0  0  0
   -2.5193  107.9096   21.7193 C   0  0  0  0  0  0  0  0  0  0  0  0
    1.6540  108.1128   20.9061 N   0  0  0  0  0  0  0  0  0  0  0  0
    2.5603  105.0448   26.5522 C   0  0  0  0  0  0  0  0  0  0  0  0
    2.3733  106.6887   24.1212 C   0  0  0  0  0  0  0  0  0  0  0  0
    1.2527  105.8607   24.6316 C   0  0  0  0  0  0  0  0  0  0  0  0
    4.7045  106.6308   26.9344 C   0  0  0  0  0  0  0  0  0  0  0  0
   -0.8324  104.7858   25.1463 C   0  0  0  0  0  0  0  0  0  0  0  0
    5.7438  109.1431   25.9877 C   0  0  0  0  0  0  0  0  0  0  0  0
   -2.9980  109.0450   19.6846 C   0  0  0  0  0  0  0  0  0  0  0  0
   -1.1420  107.8758   21.4357 C   0  0  0  0  0  0  0  0  0  0  0  0
    4.5623  107.5633   24.7866 C   0  0  0  0  0  0  0  0  0  0  0  0
   -3.4545  108.4918   20.8558 C   0  0  0  0  0  0  0  0  0  0  0  0
    4.2316  108.5923   23.8009 C   0  0  0  0  0  0  0  0  0  0  0  0
    3.5716  106.5604   24.9215 C   0  0  0  0  0  0  0  0  0  0  0  0
    0.7214  108.6843   20.0426 C   0  0  0  0  0  0  0  0  0  0  0  0
    6.8063  110.2449   23.9557 O   0  0  0  0  0  0  0  0  0  0  0  0
   -0.3070  104.7439   26.6231 C   0  0  0  0  0  0  0  0  0  0  0  0
    3.0009  103.1275   27.8793 O   0  0  0  0  0  0  0  0  0  0  0  0
    5.2847  107.6798   26.0889 C   0  0  0  0  0  0  0  0  0  0  0  0
    3.4661  108.2635   22.6138 O   0  0  0  0  0  0  0  0  0  0  0  0
    1.2345  107.5689   22.0612 N   0  0  0  0  0  0  0  0  0  0  0  0
    0.5050  102.4989   27.1220 O   0  0  0  0  0  0  0  0  0  0  0  0
    3.6923  105.9162   26.2353 C   0  0  0  0  0  0  0  0  0  0  0  0
   -1.6295  109.0140   19.4153 C   0  0  0  0  0  0  0  0  0  0  0  0
    6.6863  109.2657   24.7733 C   0  0  0  0  0  0  0  0  0  0  0  0
    1.7510  104.6848   25.3965 C   0  0  0  0  0  0  0  0  0  0  0  0
   -1.4059  107.3625   24.3205 O   0  0  0  0  0  0  0  0  0  0  0  0
    2.1351  104.2091   27.7144 C   0  0  0  0  0  0  0  0  0  0  0  0
    7.5748  108.3594   24.7896 O   0  0  0  0  0  0  0  0  0  0  0  0
   -0.1490  107.2489   22.2568 C   0  0  0  0  0  0  0  0  0  0  0  0
   -0.7356  106.6351   23.4278 C   0  0  0  0  0  0  0  0  0  0  0  0
   -0.0484  105.4689   23.9742 C   0  0  0  0  0  0  0  0  0  0  0  0
    2.3480  107.4933   22.9478 C   0  0  0  0  0  0  0  0  0  0  0  0
    0.6281  103.8518   27.4813 C   0  0  0  0  0  0  0  0  0  0  0  0
  1 11  2  0
  1 16  1  0
  1 25  1  0
  2 11  1  0
  2 13  1  0
  3 16  2  0
  3 22  1  0
  4 24  1  0
  4 27  1  0
  4 29  1  0
  5  6  1  0
  5 15  1  0
  5 34  2  0
  6 27  1  0
  6 33  1  0
  7 20  1  0
  7 24  1  0
  8 18  1  0
  8 33  1  0
  9 20  1  0
  9 26  1  0
 10 13  2  0
 10 25  1  0
 11 31  1  0
 12 14  1  0
 12 15  1  0
 12 20  1  0
 14 21  1  0
 15 24  1  0
 17 26  2  0
 18 35  1  0
 19 29  1  0
 21 34  1  0
 22 31  1  0
 22 34  1  0
 23 35  1  0
 26 30  1  0
 28 32  1  0
 29 35  1  0
 31 32  1  0
 32 33  1  0
M  END
>  <ID>  (1) 
conformer_0

$$$$
