
     RDKit          3D

 33 37  0  0  0  0  0  0  0  0999 V2000
   -0.6345  107.8851   20.1544 C   0  0  0  0  0  0  0  0  0  0  0  0
    5.0618  107.8558   26.2219 C   0  0  0  0  0  0  0  0  0  0  0  0
    3.2918  105.8090   25.7080 C   0  0  0  0  0  0  0  0  0  0  0  0
    3.1785  107.5855   24.2582 C   0  0  0  0  0  0  0  0  0  0  0  0
    0.9474  104.6315   25.9694 C   0  0  0  0  0  0  0  0  0  0  0  0
    6.3733  109.2667   24.2905 C   0  0  0  0  0  0  0  0  0  0  0  0
    6.3475  108.3055   26.4746 N   0  0  0  0  0  0  0  0  0  0  0  0
   -0.7011  108.1414   18.8091 C   0  0  0  0  0  0  0  0  0  0  0  0
    6.8736  110.1426   23.5153 O   0  0  0  0  0  0  0  0  0  0  0  0
    2.5409  104.2063   22.5950 O   0  0  0  0  0  0  0  0  0  0  0  0
    1.6489  103.9145   24.8188 C   0  0  0  0  0  0  0  0  0  0  0  0
    2.5142  102.8245   25.0774 O   0  0  0  0  0  0  0  0  0  0  0  0
    0.0218  107.4159   21.2942 N   0  0  0  0  0  0  0  0  0  0  0  0
   -0.3138  104.0476   26.1475 O   0  0  0  0  0  0  0  0  0  0  0  0
   -2.7242  108.9046   19.6224 C   0  0  0  0  0  0  0  0  0  0  0  0
   -0.7770  107.2331   23.6834 N   0  0  0  0  0  0  0  0  0  0  0  0
   -2.0202  108.2787   21.9475 C   0  0  0  0  0  0  0  0  0  0  0  0
    2.6791  106.1606   24.3462 C   0  0  0  0  0  0  0  0  0  0  0  0
    0.5260  106.0817   25.6537 C   0  0  0  0  0  0  0  0  0  0  0  0
   -3.0067  108.6939   22.7788 C   0  0  0  0  0  0  0  0  0  0  0  0
   -2.8636  108.3774   24.0667 C   0  0  0  0  0  0  0  0  0  0  0  0
   -1.9832  108.4332   20.6159 C   0  0  0  0  0  0  0  0  0  0  0  0
   -1.9425  108.7438   18.4621 C   0  0  0  0  0  0  0  0  0  0  0  0
   -1.8080  107.6683   24.5015 C   0  0  0  0  0  0  0  0  0  0  0  0
   -0.8325  107.6032   22.3726 C   0  0  0  0  0  0  0  0  0  0  0  0
   -4.0611  109.3357   22.3007 O   0  0  0  0  0  0  0  0  0  0  0  0
    4.4545  107.9486   24.9115 C   0  0  0  0  0  0  0  0  0  0  0  0
    5.2921  108.4945   24.0119 N   0  0  0  0  0  0  0  0  0  0  0  0
    8.3834  109.2676   25.5568 O   0  0  0  0  0  0  0  0  0  0  0  0
    2.1465  104.9049   23.7691 C   0  0  0  0  0  0  0  0  0  0  0  0
    1.4412  106.1445   23.3938 C   0  0  0  0  0  0  0  0  0  0  0  0
    0.2567  106.3957   24.2313 C   0  0  0  0  0  0  0  0  0  0  0  0
    7.1015  108.9620   25.5221 C   0  0  0  0  0  0  0  0  0  0  0  0
  1  8  1  0
  1 13  1  0
  1 22  1  0
  2  7  1  0
  2 27  2  0
  3 18  1  0
  4 18  1  0
  4 27  1  0
  5 11  1  0
  5 14  1  0
  5 19  1  0
  6  9  2  0
  6 28  1  0
  6 33  1  0
  7 33  1  0
  8 23  1  0
 10 30  1  0
 11 12  1  0
 11 30  1  0
 13 25  2  0
 15 22  1  0
 15 23  1  0
 16 24  1  0
 16 25  1  0
 16 32  1  0
 17 20  1  0
 17 22  2  0
 17 25  1  0
 18 30  1  0
 19 32  1  0
 20 21  2  0
 20 26  1  0
 21 24  1  0
 27 28  1  0
 29 33  2  0
 30 31  1  0
 31 32  1  0
M  END
>  <ID>  (1) 
conformer_0

$$$$
