
     RDKit          3D

 19 21  0  0  0  0  0  0  0  0999 V2000
  -22.6939   16.5988  -23.1331 C   0  0  0  0  0  0  0  0  0  0  0  0
  -23.0481   17.4653  -24.1626 C   0  0  0  0  0  0  0  0  0  0  0  0
  -24.2926   18.0153  -24.2234 C   0  0  0  0  0  0  0  0  0  0  0  0
  -24.6470   18.8527  -25.3490 O   0  0  0  0  0  0  0  0  0  0  0  0
  -25.3414   17.5387  -23.3809 C   0  0  0  0  0  0  0  0  0  0  0  0
  -24.9454   18.1580  -26.5247 C   0  0  0  0  0  0  0  0  0  0  0  0
  -23.9050   18.1418  -27.3767 C   0  0  0  0  0  0  0  0  0  0  0  0
  -22.5655   18.5668  -27.1745 C   0  0  0  0  0  0  0  0  0  0  0  0
  -24.0602   17.3010  -28.6340 C   0  0  0  0  0  0  0  0  0  0  0  0
  -23.0520   17.1860  -29.4950 C   0  0  0  0  0  0  0  0  0  0  0  0
  -21.3653   16.1645  -23.0644 F   0  0  0  0  0  0  0  0  0  0  0  0
  -23.6410   16.0832  -22.3135 C   0  0  0  0  0  0  0  0  0  0  0  0
  -24.9626   16.6454  -22.3756 C   0  0  0  0  0  0  0  0  0  0  0  0
  -23.2238   16.4601  -30.6974 O   0  0  0  0  0  0  0  0  0  0  0  0
  -22.3239   19.1836  -25.9985 O   0  0  0  0  0  0  0  0  0  0  0  0
  -21.7638   17.6039  -29.2543 C   0  0  0  0  0  0  0  0  0  0  0  0
  -21.5521   18.3412  -28.0589 C   0  0  0  0  0  0  0  0  0  0  0  0
  -21.7727   18.2442  -25.0116 C   0  0  0  0  0  0  0  0  0  0  0  0
  -20.7004   17.3553  -29.9755 O   0  0  0  0  0  0  0  0  0  0  0  0
  1  2  1  0
  2  3  2  0
  3  4  1  0
  3  5  1  0
  4  6  1  0
  6  7  2  0
  7  8  1  0
  7  9  1  0
  9 10  2  0
  1 11  1  0
  1 12  2  0
  5 13  2  0
 12 13  1  0
 10 14  1  0
  8 15  1  0
 10 16  1  0
  8 17  2  0
 16 17  1  0
  2 18  1  0
 15 18  1  0
 16 19  2  0
M  END
>  <ID>  (1) 
conformer_0

$$$$
