
     RDKit          3D

 16 17  0  0  0  0  0  0  0  0999 V2000
  -18.3524   16.2209  -26.9727 C   0  0  0  0  0  0  0  0  0  0  0  0
  -18.9244   16.8395  -26.1051 C   0  0  0  0  0  0  0  0  0  0  0  0
  -20.2934   17.0125  -26.1247 C   0  0  0  0  0  0  0  0  0  0  0  0
  -21.0327   16.6152  -27.1762 C   0  0  0  0  0  0  0  0  0  0  0  0
  -21.0315   17.6480  -24.9569 N   0  0  0  0  0  0  0  0  0  0  0  0
  -22.4601   17.5272  -25.0293 C   0  0  0  0  0  0  0  0  0  0  0  0
  -20.2951   15.9864  -28.2649 C   0  0  0  0  0  0  0  0  0  0  0  0
  -23.2469   18.2858  -25.9326 C   0  0  0  0  0  0  0  0  0  0  0  0
  -24.6809   18.1726  -25.6492 C   0  0  0  0  0  0  0  0  0  0  0  0
  -18.9563   15.9206  -28.2089 C   0  0  0  0  0  0  0  0  0  0  0  0
  -22.9579   17.1894  -23.7778 C   0  0  0  0  0  0  0  0  0  0  0  0
  -18.1746   15.1980  -29.3818 Cl  0  0  0  0  0  0  0  0  0  0  0  0
  -22.1196   16.6331  -22.7568 F   0  0  0  0  0  0  0  0  0  0  0  0
  -24.3218   17.2299  -23.5387 C   0  0  0  0  0  0  0  0  0  0  0  0
  -25.1578   17.7908  -24.4907 C   0  0  0  0  0  0  0  0  0  0  0  0
  -26.8120   17.9623  -24.2317 Cl  0  0  0  0  0  0  0  0  0  0  0  0
  1  2  2  0
  2  3  1  0
  3  4  2  0
  3  5  1  0
  5  6  1  0
  4  7  1  0
  6  8  2  0
  8  9  1  0
  1 10  1  0
  7 10  2  0
  6 11  1  0
 10 12  1  0
 11 13  1  0
 11 14  2  0
  9 15  2  0
 14 15  1  0
 15 16  1  0
M  END
>  <ID>  (1) 
conformer_0

$$$$
