
     RDKit          3D

 17 19  0  0  0  0  0  0  0  0999 V2000
  -18.1050   16.3622  -27.3733 C   0  0  0  0  0  0  0  0  0  0  0  0
  -18.5114   16.7757  -26.3009 C   0  0  0  0  0  0  0  0  0  0  0  0
  -17.7289   17.2157  -25.2200 C   0  0  0  0  0  0  0  0  0  0  0  0
  -19.9157   16.9980  -26.3207 C   0  0  0  0  0  0  0  0  0  0  0  0
  -18.9890   15.8939  -28.4020 C   0  0  0  0  0  0  0  0  0  0  0  0
  -20.8288   16.7024  -27.2038 C   0  0  0  0  0  0  0  0  0  0  0  0
  -20.6592   17.6132  -24.9472 C   0  0  0  0  0  0  0  0  0  0  0  0
  -22.0113   17.5706  -24.9736 C   0  0  0  0  0  0  0  0  0  0  0  0
  -22.7415   18.0130  -23.7901 O   0  0  0  0  0  0  0  0  0  0  0  0
  -24.1217   17.8731  -23.9939 C   0  0  0  0  0  0  0  0  0  0  0  0
  -22.8193   17.3195  -26.2316 C   0  0  0  0  0  0  0  0  0  0  0  0
  -22.1479   16.9101  -27.2796 C   0  0  0  0  0  0  0  0  0  0  0  0
  -24.5376   18.3035  -25.3199 C   0  0  0  0  0  0  0  0  0  0  0  0
  -25.9623   18.4003  -25.3266 C   0  0  0  0  0  0  0  0  0  0  0  0
  -20.2682   16.0424  -28.3396 C   0  0  0  0  0  0  0  0  0  0  0  0
  -24.1150   17.7731  -26.3179 N   0  0  0  0  0  0  0  0  0  0  0  0
  -26.5521   17.4395  -25.9354 O   0  0  0  0  0  0  0  0  0  0  0  0
  1  2  2  0
  2  3  1  0
  2  4  1  0
  1  5  1  0
  4  6  2  0
  4  7  1  0
  7  8  2  0
  8  9  1  0
  9 10  1  0
  8 11  1  0
  6 12  1  0
 11 12  2  0
 10 13  1  0
 13 14  1  0
  5 15  2  0
  6 15  1  0
 11 16  1  0
 13 16  1  0
 14 17  1  0
M  END
>  <ID>  (1) 
conformer_0

$$$$
