
     RDKit          3D

 13 13  0  0  0  0  0  0  0  0999 V2000
  -18.3524   16.2209  -26.9727 C   0  0  0  0  0  0  0  0  0  0  0  0
  -18.9244   16.8395  -26.1051 C   0  0  0  0  0  0  0  0  0  0  0  0
  -20.3226   16.8766  -26.0913 C   0  0  0  0  0  0  0  0  0  0  0  0
  -21.0930   17.4393  -24.9313 N   0  0  0  0  0  0  0  0  0  0  0  0
  -21.1237   16.4927  -27.2615 C   0  0  0  0  0  0  0  0  0  0  0  0
  -22.0515   18.2298  -25.0965 C   0  0  0  0  0  0  0  0  0  0  0  0
  -22.2117   19.0756  -25.9714 O   0  0  0  0  0  0  0  0  0  0  0  0
  -20.3552   15.9171  -28.2910 C   0  0  0  0  0  0  0  0  0  0  0  0
  -23.1034   18.0763  -24.0419 C   0  0  0  0  0  0  0  0  0  0  0  0
  -18.9597   15.8060  -28.1828 C   0  0  0  0  0  0  0  0  0  0  0  0
  -24.4909   18.2917  -24.5491 C   0  0  0  0  0  0  0  0  0  0  0  0
  -25.5578   17.8818  -23.7106 C   0  0  0  0  0  0  0  0  0  0  0  0
  -25.4377   17.0970  -22.7048 C   0  0  0  0  0  0  0  0  0  0  0  0
  1  2  1  0
  2  3  2  0
  3  4  1  0
  3  5  1  0
  4  6  1  0
  6  7  2  0
  5  8  2  0
  6  9  1  0
  1 10  2  0
  8 10  1  0
  9 11  1  0
 11 12  1  0
 12 13  1  0
M  END
>  <ID>  (1) 
conformer_0

$$$$
