
     RDKit          3D

 18 21  0  0  0  0  0  0  0  0999 V2000
  -22.6939   16.5988  -23.1331 C   0  0  0  0  0  0  0  0  0  0  0  0
  -21.8898   16.7024  -24.1265 C   0  0  0  0  0  0  0  0  0  0  0  0
  -23.9982   17.1696  -23.1640 C   0  0  0  0  0  0  0  0  0  0  0  0
  -20.5874   16.1750  -24.2249 C   0  0  0  0  0  0  0  0  0  0  0  0
  -19.6185   17.1281  -24.8415 C   0  0  0  0  0  0  0  0  0  0  0  0
  -22.2728   17.6614  -25.2424 C   0  0  0  0  0  0  0  0  0  0  0  0
  -19.9662   17.7716  -26.0464 C   0  0  0  0  0  0  0  0  0  0  0  0
  -19.9384   16.9583  -27.1573 C   0  0  0  0  0  0  0  0  0  0  0  0
  -23.2784   18.5415  -25.0566 C   0  0  0  0  0  0  0  0  0  0  0  0
  -19.0528   16.0875  -27.4184 C   0  0  0  0  0  0  0  0  0  0  0  0
  -21.3284   16.5263  -27.4136 C   0  0  0  0  0  0  0  0  0  0  0  0
  -18.8517   15.5881  -28.7511 C   0  0  0  0  0  0  0  0  0  0  0  0
  -24.2456   18.3632  -23.9561 C   0  0  0  0  0  0  0  0  0  0  0  0
  -21.3831   18.1526  -26.3792 C   0  0  0  0  0  0  0  0  0  0  0  0
  -19.5470   17.8581  -28.1295 C   0  0  0  0  0  0  0  0  0  0  0  0
  -21.7550   17.4512  -27.3256 C   0  0  0  0  0  0  0  0  0  0  0  0
  -19.6316   16.4042  -29.5063 C   0  0  0  0  0  0  0  0  0  0  0  0
  -19.5379   17.7192  -29.4099 C   0  0  0  0  0  0  0  0  0  0  0  0
  1  2  2  0
  1  3  1  0
  2  4  1  0
  4  5  1  0
  2  6  1  0
  5  7  1  0
  7  8  1  0
  6  9  2  0
  8 10  1  0
  8 11  1  0
 10 12  1  0
  3 13  2  0
  9 13  1  0
  6 14  1  0
  7 14  1  0
  8 15  1  0
 11 16  1  0
 14 16  1  0
 12 17  1  0
 15 18  1  0
 17 18  1  0
M  END
>  <ID>  (1) 
conformer_0

$$$$
