
     RDKit          3D

 18 19  0  0  0  0  0  0  0  0999 V2000
  -17.8160   16.8238  -26.3437 C   0  0  0  0  0  0  0  0  0  0  0  0
  -18.5274   17.3934  -25.3818 C   0  0  0  0  0  0  0  0  0  0  0  0
  -19.8970   17.4116  -25.4908 C   0  0  0  0  0  0  0  0  0  0  0  0
  -20.6995   17.9660  -24.4320 O   0  0  0  0  0  0  0  0  0  0  0  0
  -20.5045   17.1511  -26.7030 C   0  0  0  0  0  0  0  0  0  0  0  0
  -19.7729   16.5858  -27.7014 C   0  0  0  0  0  0  0  0  0  0  0  0
  -18.3817   16.4023  -27.5524 C   0  0  0  0  0  0  0  0  0  0  0  0
  -21.8508   17.4162  -26.7933 O   0  0  0  0  0  0  0  0  0  0  0  0
  -20.2313   16.1662  -28.9489 C   0  0  0  0  0  0  0  0  0  0  0  0
  -22.3510   18.3211  -26.1092 C   0  0  0  0  0  0  0  0  0  0  0  0
  -21.5403   16.2912  -29.2489 O   0  0  0  0  0  0  0  0  0  0  0  0
  -19.5041   16.1064  -30.0931 O   0  0  0  0  0  0  0  0  0  0  0  0
  -21.9373   18.3861  -24.9324 C   0  0  0  0  0  0  0  0  0  0  0  0
  -23.6250   18.5933  -26.5858 O   0  0  0  0  0  0  0  0  0  0  0  0
  -24.6267   18.2049  -25.7178 C   0  0  0  0  0  0  0  0  0  0  0  0
  -22.1320   17.0153  -30.2486 C   0  0  0  0  0  0  0  0  0  0  0  0
  -25.8511   18.4114  -26.3061 C   0  0  0  0  0  0  0  0  0  0  0  0
  -24.7092   18.6078  -24.4811 O   0  0  0  0  0  0  0  0  0  0  0  0
  1  2  2  0
  2  3  1  0
  3  4  1  0
  3  5  2  0
  5  6  1  0
  1  7  1  0
  6  7  2  0
  5  8  1  0
  6  9  1  0
  8 10  1  0
  9 11  1  0
  9 12  2  0
  4 13  1  0
 10 13  1  0
 10 14  1  0
 14 15  1  0
 11 16  1  0
 15 17  1  0
 15 18  2  0
M  END
>  <ID>  (1) 
conformer_0

$$$$
