
     RDKit          3D

 16 18  0  0  0  0  0  0  0  0999 V2000
  -17.6943   16.9005  -26.4587 C   0  0  0  0  0  0  0  0  0  0  0  0
  -17.9829   16.4820  -27.5592 C   0  0  0  0  0  0  0  0  0  0  0  0
  -18.7002   17.1609  -25.4559 C   0  0  0  0  0  0  0  0  0  0  0  0
  -19.9407   17.2883  -25.6243 C   0  0  0  0  0  0  0  0  0  0  0  0
  -20.9515   17.5980  -24.7254 N   0  0  0  0  0  0  0  0  0  0  0  0
  -22.0217   18.0483  -25.1921 C   0  0  0  0  0  0  0  0  0  0  0  0
  -23.2906   17.7470  -24.4431 C   0  0  0  0  0  0  0  0  0  0  0  0
  -23.2784   17.0574  -23.2624 C   0  0  0  0  0  0  0  0  0  0  0  0
  -24.5233   16.8811  -22.5911 C   0  0  0  0  0  0  0  0  0  0  0  0
  -25.6572   17.6427  -23.2558 C   0  0  0  0  0  0  0  0  0  0  0  0
  -24.5235   18.2527  -24.9034 C   0  0  0  0  0  0  0  0  0  0  0  0
  -20.3494   16.7171  -27.0204 C   0  0  0  0  0  0  0  0  0  0  0  0
  -25.6404   18.1947  -24.2970 C   0  0  0  0  0  0  0  0  0  0  0  0
  -21.8016   16.7068  -27.2692 C   0  0  0  0  0  0  0  0  0  0  0  0
  -22.4675   17.7503  -26.5155 N   0  0  0  0  0  0  0  0  0  0  0  0
  -19.4671   16.3527  -27.8677 C   0  0  0  0  0  0  0  0  0  0  0  0
  1  2  2  0
  1  3  1  0
  3  4  2  0
  4  5  1  0
  5  6  1  0
  6  7  1  0
  7  8  1  0
  8  9  2  0
  9 10  1  0
  7 11  2  0
  4 12  1  0
 10 13  2  0
 11 13  1  0
 12 14  1  0
  6 15  1  0
 14 15  1  0
  2 16  1  0
 12 16  2  0
M  END
>  <ID>  (1) 
conformer_0

$$$$
