
     RDKit          3D

 17 19  0  0  0  0  0  0  0  0999 V2000
  -23.6655   16.6677  -22.8522 C   0  0  0  0  0  0  0  0  0  0  0  0
  -23.9633   17.5667  -23.7561 C   0  0  0  0  0  0  0  0  0  0  0  0
  -23.0459   17.8618  -24.7790 C   0  0  0  0  0  0  0  0  0  0  0  0
  -21.7820   17.2703  -24.7093 C   0  0  0  0  0  0  0  0  0  0  0  0
  -25.3600   18.0409  -23.7723 C   0  0  0  0  0  0  0  0  0  0  0  0
  -23.3539   18.7313  -25.8363 O   0  0  0  0  0  0  0  0  0  0  0  0
  -22.5074   18.8168  -26.8584 C   0  0  0  0  0  0  0  0  0  0  0  0
  -25.6558   19.1482  -24.0719 O   0  0  0  0  0  0  0  0  0  0  0  0
  -22.8839   18.2856  -28.0037 C   0  0  0  0  0  0  0  0  0  0  0  0
  -21.2282   18.2937  -26.3428 C   0  0  0  0  0  0  0  0  0  0  0  0
  -20.9094   17.5358  -25.4477 C   0  0  0  0  0  0  0  0  0  0  0  0
  -21.9474   18.4560  -29.0776 C   0  0  0  0  0  0  0  0  0  0  0  0
  -20.6221   18.2711  -28.7035 C   0  0  0  0  0  0  0  0  0  0  0  0
  -26.2775   17.3800  -23.0973 O   0  0  0  0  0  0  0  0  0  0  0  0
  -21.5287   16.1542  -23.6907 C   0  0  0  0  0  0  0  0  0  0  0  0
  -22.5371   15.9114  -22.7857 C   0  0  0  0  0  0  0  0  0  0  0  0
  -20.2041   18.3165  -27.4354 C   0  0  0  0  0  0  0  0  0  0  0  0
  1  2  1  0
  2  3  2  0
  3  4  1  0
  2  5  1  0
  3  6  1  0
  6  7  1  0
  5  8  2  0
  7  9  1  0
  7 10  2  0
  4 11  2  0
 10 11  1  0
  9 12  2  0
 12 13  1  0
  5 14  1  0
  4 15  1  0
  1 16  2  0
 15 16  1  0
 10 17  1  0
 13 17  2  0
M  END
>  <ID>  (1) 
conformer_0

$$$$
