
     RDKit          3D

 21 24  0  0  0  0  0  0  0  0999 V2000
  -18.3354   15.6064  -28.8411 C   0  0  0  0  0  0  0  0  0  0  0  0
  -18.3974   16.1252  -27.6239 C   0  0  0  0  0  0  0  0  0  0  0  0
  -19.5521   16.3933  -27.0510 C   0  0  0  0  0  0  0  0  0  0  0  0
  -19.5656   15.7189  -29.5707 N   0  0  0  0  0  0  0  0  0  0  0  0
  -20.7263   16.4200  -27.7683 C   0  0  0  0  0  0  0  0  0  0  0  0
  -19.4981   15.3329  -31.0101 C   0  0  0  0  0  0  0  0  0  0  0  0
  -22.0255   16.8216  -27.0623 C   0  0  0  0  0  0  0  0  0  0  0  0
  -22.7014   17.8346  -27.7037 C   0  0  0  0  0  0  0  0  0  0  0  0
  -20.7762   16.0952  -29.0717 C   0  0  0  0  0  0  0  0  0  0  0  0
  -21.6042   17.4330  -25.7186 N   0  0  0  0  0  0  0  0  0  0  0  0
  -22.6521   17.6329  -24.8706 C   0  0  0  0  0  0  0  0  0  0  0  0
  -20.1987   17.5664  -25.4169 C   0  0  0  0  0  0  0  0  0  0  0  0
  -23.7362   18.2941  -25.3494 C   0  0  0  0  0  0  0  0  0  0  0  0
  -19.4416   16.5947  -25.6729 C   0  0  0  0  0  0  0  0  0  0  0  0
  -24.0135   18.1217  -26.8896 C   0  0  0  0  0  0  0  0  0  0  0  0
  -24.7789   18.5936  -24.6714 C   0  0  0  0  0  0  0  0  0  0  0  0
  -25.9800   19.1816  -25.2406 O   0  0  0  0  0  0  0  0  0  0  0  0
  -21.7450   16.6205  -29.8749 O   0  0  0  0  0  0  0  0  0  0  0  0
  -22.5439   17.2534  -23.6078 C   0  0  0  0  0  0  0  0  0  0  0  0
  -24.9091   18.1075  -23.3390 C   0  0  0  0  0  0  0  0  0  0  0  0
  -23.7902   17.4689  -22.7558 C   0  0  0  0  0  0  0  0  0  0  0  0
  1  2  2  0
  2  3  1  0
  1  4  1  0
  3  5  2  0
  4  6  1  0
  5  7  1  0
  7  8  1  0
  4  9  1  0
  5  9  1  0
  7 10  1  0
 10 11  1  0
 10 12  1  0
 11 13  1  0
  3 14  1  0
 12 14  1  0
  8 15  1  0
 13 15  1  0
 13 16  2  0
 16 17  1  0
  9 18  2  0
 11 19  2  0
 16 20  1  0
 19 21  1  0
 20 21  2  0
M  END
>  <ID>  (1) 
conformer_0

$$$$
