
     RDKit          3D

  9  9  0  0  0  0  0  0  0  0999 V2000
  -18.2180   15.6814  -28.9250 C   0  0  0  0  0  0  0  0  0  0  0  0
  -19.0820   16.0553  -29.7607 C   0  0  0  0  0  0  0  0  0  0  0  0
  -18.6970   15.4743  -27.5979 C   0  0  0  0  0  0  0  0  0  0  0  0
  -20.4503   16.3092  -29.4853 C   0  0  0  0  0  0  0  0  0  0  0  0
  -21.3810   16.6800  -30.5857 C   0  0  0  0  0  0  0  0  0  0  0  0
  -20.8311   16.2749  -28.3580 C   0  0  0  0  0  0  0  0  0  0  0  0
  -20.9904   17.3910  -31.5973 O   0  0  0  0  0  0  0  0  0  0  0  0
  -20.0025   15.8496  -27.3109 C   0  0  0  0  0  0  0  0  0  0  0  0
  -22.5003   16.2245  -30.5526 O   0  0  0  0  0  0  0  0  0  0  0  0
  1  2  2  0
  1  3  1  0
  2  4  1  0
  4  5  1  0
  4  6  2  0
  5  7  2  0
  3  8  2  0
  6  8  1  0
  5  9  1  0
M  END
>  <ID>  (1) 
conformer_0

$$$$
