
     RDKit          3D

 18 20  0  0  0  0  0  0  0  0999 V2000
  -23.6655   16.6677  -22.8522 C   0  0  0  0  0  0  0  0  0  0  0  0
  -23.9633   17.5667  -23.7561 C   0  0  0  0  0  0  0  0  0  0  0  0
  -24.5962   16.4272  -21.8874 C   0  0  0  0  0  0  0  0  0  0  0  0
  -25.2221   17.9294  -24.0085 C   0  0  0  0  0  0  0  0  0  0  0  0
  -25.4955   18.7960  -25.2137 C   0  0  0  0  0  0  0  0  0  0  0  0
  -22.9557   17.8055  -24.7891 C   0  0  0  0  0  0  0  0  0  0  0  0
  -26.1458   17.7219  -22.9661 C   0  0  0  0  0  0  0  0  0  0  0  0
  -21.6258   17.4131  -24.7057 C   0  0  0  0  0  0  0  0  0  0  0  0
  -20.6429   18.1017  -25.2946 C   0  0  0  0  0  0  0  0  0  0  0  0
  -26.5238   19.3594  -25.0902 O   0  0  0  0  0  0  0  0  0  0  0  0
  -25.8434   16.8900  -21.9505 C   0  0  0  0  0  0  0  0  0  0  0  0
  -19.2392   17.6700  -25.1969 C   0  0  0  0  0  0  0  0  0  0  0  0
  -24.5338   18.8898  -26.1680 N   0  0  0  0  0  0  0  0  0  0  0  0
  -23.3037   18.5260  -25.9467 C   0  0  0  0  0  0  0  0  0  0  0  0
  -21.0822   19.0541  -26.3020 C   0  0  0  0  0  0  0  0  0  0  0  0
  -22.3084   19.2405  -26.6237 N   0  0  0  0  0  0  0  0  0  0  0  0
  -18.4894   17.1936  -25.9990 N   0  0  0  0  0  0  0  0  0  0  0  0
  -17.2150   16.8358  -25.5678 C   0  0  0  0  0  0  0  0  0  0  0  0
  1  2  1  0
  1  3  2  0
  2  4  2  0
  4  5  1  0
  2  6  1  0
  4  7  1  0
  6  8  1  0
  8  9  2  0
  5 10  2  0
  3 11  1  0
  7 11  2  0
  9 12  1  0
  5 13  1  0
  6 14  2  0
 13 14  1  0
  9 15  1  0
 14 16  1  0
 15 16  2  0
 12 17  2  3
 17 18  1  0
M  END
>  <ID>  (1) 
conformer_0

$$$$
