
     RDKit          3D

 18 20  0  0  0  0  0  0  0  0999 V2000
  -22.6939   16.5988  -23.1331 C   0  0  0  0  0  0  0  0  0  0  0  0
  -23.0481   17.4653  -24.1626 C   0  0  0  0  0  0  0  0  0  0  0  0
  -24.2926   18.0153  -24.2234 C   0  0  0  0  0  0  0  0  0  0  0  0
  -24.6470   18.8527  -25.3490 O   0  0  0  0  0  0  0  0  0  0  0  0
  -25.3414   17.5387  -23.3809 C   0  0  0  0  0  0  0  0  0  0  0  0
  -24.9454   18.1580  -26.5247 C   0  0  0  0  0  0  0  0  0  0  0  0
  -23.9050   18.1418  -27.3767 C   0  0  0  0  0  0  0  0  0  0  0  0
  -22.5655   18.5668  -27.1745 C   0  0  0  0  0  0  0  0  0  0  0  0
  -24.0602   17.3010  -28.6340 C   0  0  0  0  0  0  0  0  0  0  0  0
  -21.4055   16.1155  -23.0381 F   0  0  0  0  0  0  0  0  0  0  0  0
  -22.9594   17.4547  -29.3756 C   0  0  0  0  0  0  0  0  0  0  0  0
  -26.7498   18.0751  -23.4891 C   0  0  0  0  0  0  0  0  0  0  0  0
  -22.8419   16.8779  -30.7628 C   0  0  0  0  0  0  0  0  0  0  0  0
  -25.0123   16.5780  -22.5044 C   0  0  0  0  0  0  0  0  0  0  0  0
  -21.8935   18.0321  -25.0252 O   0  0  0  0  0  0  0  0  0  0  0  0
  -21.9877   18.1736  -28.5666 N   0  0  0  0  0  0  0  0  0  0  0  0
  -21.8460   19.0209  -26.1906 C   0  0  0  0  0  0  0  0  0  0  0  0
  -23.7120   16.1363  -22.3482 C   0  0  0  0  0  0  0  0  0  0  0  0
  1  2  1  0
  2  3  2  0
  3  4  1  0
  3  5  1  0
  4  6  1  0
  6  7  2  0
  7  8  1  0
  7  9  1  0
  1 10  1  0
  9 11  2  0
  5 12  1  0
 11 13  1  0
  5 14  2  0
  2 15  1  0
  8 16  2  0
 11 16  1  0
  8 17  1  0
 15 17  1  0
  1 18  2  0
 14 18  1  0
M  END
>  <ID>  (1) 
conformer_0

$$$$
