
     RDKit          3D

 18 19  0  0  0  0  0  0  0  0999 V2000
  -18.4216   17.1921  -24.9537 C   0  0  0  0  0  0  0  0  0  0  0  0
  -19.1109   17.0251  -26.0335 C   0  0  0  0  0  0  0  0  0  0  0  0
  -20.4289   17.3144  -26.0641 C   0  0  0  0  0  0  0  0  0  0  0  0
  -18.4267   16.6358  -27.2404 C   0  0  0  0  0  0  0  0  0  0  0  0
  -21.2692   17.4284  -24.9390 N   0  0  0  0  0  0  0  0  0  0  0  0
  -19.2363   16.1796  -28.2708 C   0  0  0  0  0  0  0  0  0  0  0  0
  -22.4155   18.0642  -25.0863 C   0  0  0  0  0  0  0  0  0  0  0  0
  -18.7262   15.6339  -29.4952 C   0  0  0  0  0  0  0  0  0  0  0  0
  -22.7567   18.8569  -26.0448 O   0  0  0  0  0  0  0  0  0  0  0  0
  -19.1489   16.3435  -30.5729 O   0  0  0  0  0  0  0  0  0  0  0  0
  -21.0994   16.5620  -27.2547 C   0  0  0  0  0  0  0  0  0  0  0  0
  -23.4526   17.6359  -24.0422 C   0  0  0  0  0  0  0  0  0  0  0  0
  -24.7838   17.9816  -24.2358 C   0  0  0  0  0  0  0  0  0  0  0  0
  -23.0959   16.9830  -22.9023 C   0  0  0  0  0  0  0  0  0  0  0  0
  -25.6813   17.5586  -23.1680 C   0  0  0  0  0  0  0  0  0  0  0  0
  -25.2876   16.8731  -22.2209 C   0  0  0  0  0  0  0  0  0  0  0  0
  -20.5402   16.2812  -28.3525 C   0  0  0  0  0  0  0  0  0  0  0  0
  -23.8582   16.5769  -22.0842 C   0  0  0  0  0  0  0  0  0  0  0  0
  1  2  2  0
  2  3  1  0
  2  4  1  0
  3  5  1  0
  4  6  1  0
  5  7  1  0
  6  8  1  0
  7  9  2  0
  8 10  1  0
  3 11  1  0
  7 12  1  0
 12 13  2  0
 12 14  1  0
 13 15  1  0
 15 16  2  0
  6 17  1  0
 11 17  1  0
 14 18  2  0
 16 18  1  0
M  END
>  <ID>  (1) 
conformer_0

$$$$
