
     RDKit          3D

 16 17  0  0  0  0  0  0  0  0999 V2000
  -17.9105   16.3883  -28.4006 C   0  0  0  0  0  0  0  0  0  0  0  0
  -18.1935   16.7159  -27.1433 C   0  0  0  0  0  0  0  0  0  0  0  0
  -19.4985   16.5418  -26.5655 C   0  0  0  0  0  0  0  0  0  0  0  0
  -19.8209   16.8373  -25.2165 C   0  0  0  0  0  0  0  0  0  0  0  0
  -19.0712   16.0529  -29.1712 C   0  0  0  0  0  0  0  0  0  0  0  0
  -21.2894   16.9389  -24.9371 C   0  0  0  0  0  0  0  0  0  0  0  0
  -20.5657   16.2184  -27.3575 C   0  0  0  0  0  0  0  0  0  0  0  0
  -21.9958   17.9140  -25.0531 C   0  0  0  0  0  0  0  0  0  0  0  0
  -20.1725   16.0082  -28.7509 C   0  0  0  0  0  0  0  0  0  0  0  0
  -23.4152   17.9718  -24.6644 C   0  0  0  0  0  0  0  0  0  0  0  0
  -21.5023   19.2181  -25.3556 C   0  0  0  0  0  0  0  0  0  0  0  0
  -23.7594   17.2593  -23.5609 C   0  0  0  0  0  0  0  0  0  0  0  0
  -24.3047   18.6771  -25.3688 O   0  0  0  0  0  0  0  0  0  0  0  0
  -25.6241   18.4072  -24.9917 C   0  0  0  0  0  0  0  0  0  0  0  0
  -22.7804   16.3573  -22.9557 C   0  0  0  0  0  0  0  0  0  0  0  0
  -21.5516   16.1841  -23.5189 C   0  0  0  0  0  0  0  0  0  0  0  0
  1  2  2  0
  2  3  1  0
  3  4  1  0
  1  5  1  0
  4  6  1  0
  3  7  2  0
  6  8  2  0
  5  9  2  0
  7  9  1  0
  8 10  1  0
  8 11  1  0
 10 12  2  0
 10 13  1  0
 13 14  1  0
 12 15  1  0
  6 16  1  0
 15 16  2  0
M  END
>  <ID>  (1) 
conformer_0

$$$$
