
     RDKit          3D

 14 14  0  0  0  0  0  0  0  0999 V2000
  -18.3524   16.2209  -26.9727 C   0  0  0  0  0  0  0  0  0  0  0  0
  -18.9244   16.8395  -26.1051 C   0  0  0  0  0  0  0  0  0  0  0  0
  -20.3226   16.8766  -26.0913 C   0  0  0  0  0  0  0  0  0  0  0  0
  -21.0930   17.4393  -24.9313 N   0  0  0  0  0  0  0  0  0  0  0  0
  -21.1237   16.4927  -27.2615 C   0  0  0  0  0  0  0  0  0  0  0  0
  -22.0515   18.2298  -25.0965 C   0  0  0  0  0  0  0  0  0  0  0  0
  -22.4556   16.6683  -27.3719 O   0  0  0  0  0  0  0  0  0  0  0  0
  -22.2011   19.0926  -25.9259 O   0  0  0  0  0  0  0  0  0  0  0  0
  -22.9227   16.9533  -28.6501 C   0  0  0  0  0  0  0  0  0  0  0  0
  -23.0256   18.1625  -23.9325 O   0  0  0  0  0  0  0  0  0  0  0  0
  -20.3445   15.9099  -28.3236 C   0  0  0  0  0  0  0  0  0  0  0  0
  -23.5309   16.9074  -23.5084 C   0  0  0  0  0  0  0  0  0  0  0  0
  -18.8927   15.8566  -28.2089 C   0  0  0  0  0  0  0  0  0  0  0  0
  -24.9183   17.1411  -23.1110 C   0  0  0  0  0  0  0  0  0  0  0  0
  1  2  1  0
  2  3  2  0
  3  4  1  0
  3  5  1  0
  4  6  1  0
  5  7  1  0
  6  8  2  0
  7  9  1  0
  6 10  1  0
  5 11  2  0
 10 12  1  0
  1 13  2  0
 11 13  1  0
 12 14  1  0
M  END
>  <ID>  (1) 
conformer_0

$$$$
