
     RDKit          3D

 18 19  0  0  0  0  0  0  0  0999 V2000
  -17.6943   16.9005  -26.4587 C   0  0  0  0  0  0  0  0  0  0  0  0
  -17.9829   16.4820  -27.5592 C   0  0  0  0  0  0  0  0  0  0  0  0
  -18.7002   17.1609  -25.4559 C   0  0  0  0  0  0  0  0  0  0  0  0
  -19.9407   17.2883  -25.6243 C   0  0  0  0  0  0  0  0  0  0  0  0
  -20.9515   17.5980  -24.7254 N   0  0  0  0  0  0  0  0  0  0  0  0
  -22.0217   18.0483  -25.1921 C   0  0  0  0  0  0  0  0  0  0  0  0
  -23.2906   17.7470  -24.4431 C   0  0  0  0  0  0  0  0  0  0  0  0
  -24.3780   18.2720  -24.9484 C   0  0  0  0  0  0  0  0  0  0  0  0
  -20.3447   16.7376  -26.9559 C   0  0  0  0  0  0  0  0  0  0  0  0
  -23.3936   17.1771  -23.1895 C   0  0  0  0  0  0  0  0  0  0  0  0
  -19.4115   16.2832  -27.9712 C   0  0  0  0  0  0  0  0  0  0  0  0
  -19.7284   15.9170  -29.1485 O   0  0  0  0  0  0  0  0  0  0  0  0
  -22.3832   16.6656  -22.5085 F   0  0  0  0  0  0  0  0  0  0  0  0
  -20.9451   16.4016  -29.6530 C   0  0  0  0  0  0  0  0  0  0  0  0
  -24.4624   18.8005  -26.2568 F   0  0  0  0  0  0  0  0  0  0  0  0
  -24.6321   17.0222  -22.5987 C   0  0  0  0  0  0  0  0  0  0  0  0
  -25.7759   17.5237  -23.1532 C   0  0  0  0  0  0  0  0  0  0  0  0
  -25.7541   18.1345  -24.4657 C   0  0  0  0  0  0  0  0  0  0  0  0
  1  2  2  0
  1  3  1  0
  3  4  2  0
  4  5  1  0
  5  6  1  0
  6  7  1  0
  7  8  2  0
  4  9  1  0
  7 10  1  0
  2 11  1  0
  9 11  2  0
 11 12  1  0
 10 13  1  0
 12 14  1  0
  8 15  1  0
 10 16  2  0
 16 17  1  0
  8 18  1  0
 17 18  2  0
M  END
>  <ID>  (1) 
conformer_0

$$$$
