
     RDKit          3D

 20 22  0  0  0  0  0  0  0  0999 V2000
  -18.1165   15.7539  -29.7538 C   0  0  0  0  0  0  0  0  0  0  0  0
  -18.1876   16.0307  -28.4400 C   0  0  0  0  0  0  0  0  0  0  0  0
  -19.1084   15.8028  -27.5823 C   0  0  0  0  0  0  0  0  0  0  0  0
  -19.0911   16.2553  -26.1334 C   0  0  0  0  0  0  0  0  0  0  0  0
  -20.4262   15.6120  -28.0247 C   0  0  0  0  0  0  0  0  0  0  0  0
  -21.5550   15.7326  -27.2258 O   0  0  0  0  0  0  0  0  0  0  0  0
  -21.4522   16.8702  -26.3034 C   0  0  0  0  0  0  0  0  0  0  0  0
  -22.6105   17.3400  -25.7116 C   0  0  0  0  0  0  0  0  0  0  0  0
  -17.8385   16.9190  -25.7185 O   0  0  0  0  0  0  0  0  0  0  0  0
  -22.7108   17.3059  -24.2631 C   0  0  0  0  0  0  0  0  0  0  0  0
  -20.2819   16.9202  -25.5778 C   0  0  0  0  0  0  0  0  0  0  0  0
  -21.7742   16.7114  -23.5309 O   0  0  0  0  0  0  0  0  0  0  0  0
  -20.5394   15.4955  -29.4581 C   0  0  0  0  0  0  0  0  0  0  0  0
  -23.5766   17.6986  -26.4221 C   0  0  0  0  0  0  0  0  0  0  0  0
  -21.7678   15.2940  -30.0375 O   0  0  0  0  0  0  0  0  0  0  0  0
  -23.5747   17.6884  -27.8981 C   0  0  0  0  0  0  0  0  0  0  0  0
  -24.7547   18.2674  -25.7678 C   0  0  0  0  0  0  0  0  0  0  0  0
  -23.8352   17.7555  -23.7130 C   0  0  0  0  0  0  0  0  0  0  0  0
  -24.9266   18.2164  -24.4014 C   0  0  0  0  0  0  0  0  0  0  0  0
  -19.4077   15.5479  -30.2818 C   0  0  0  0  0  0  0  0  0  0  0  0
  1  2  2  0
  2  3  1  0
  3  4  1  0
  3  5  2  0
  5  6  1  0
  6  7  1  0
  7  8  1  0
  4  9  1  0
  8 10  1  0
  4 11  1  0
  7 11  1  0
 10 12  1  0
  5 13  1  0
  8 14  2  0
 13 15  1  0
 14 16  1  0
 14 17  1  0
 10 18  2  0
 17 19  2  0
 18 19  1  0
  1 20  1  0
 13 20  2  0
M  END
>  <ID>  (1) 
conformer_0

$$$$
