
     RDKit          3D

 19 21  0  0  0  0  0  0  0  0999 V2000
  -17.6943   16.9005  -26.4587 C   0  0  0  0  0  0  0  0  0  0  0  0
  -17.9829   16.4820  -27.5592 C   0  0  0  0  0  0  0  0  0  0  0  0
  -18.7002   17.1609  -25.4559 C   0  0  0  0  0  0  0  0  0  0  0  0
  -19.9407   17.2883  -25.6243 C   0  0  0  0  0  0  0  0  0  0  0  0
  -20.9515   17.5980  -24.7254 N   0  0  0  0  0  0  0  0  0  0  0  0
  -22.0217   18.0483  -25.1921 C   0  0  0  0  0  0  0  0  0  0  0  0
  -23.2906   17.7470  -24.4431 C   0  0  0  0  0  0  0  0  0  0  0  0
  -24.3780   18.2720  -24.9484 C   0  0  0  0  0  0  0  0  0  0  0  0
  -20.3447   16.7376  -26.9559 C   0  0  0  0  0  0  0  0  0  0  0  0
  -23.3936   17.1771  -23.1895 C   0  0  0  0  0  0  0  0  0  0  0  0
  -22.3746   16.6365  -22.5195 F   0  0  0  0  0  0  0  0  0  0  0  0
  -17.2041   15.9832  -28.5850 F   0  0  0  0  0  0  0  0  0  0  0  0
  -24.6541   17.0126  -22.6064 C   0  0  0  0  0  0  0  0  0  0  0  0
  -24.3287   18.8831  -26.3139 F   0  0  0  0  0  0  0  0  0  0  0  0
  -22.1226   17.9971  -26.5688 N   0  0  0  0  0  0  0  0  0  0  0  0
  -19.4541   16.2521  -27.9599 C   0  0  0  0  0  0  0  0  0  0  0  0
  -25.6839   18.3036  -24.4529 C   0  0  0  0  0  0  0  0  0  0  0  0
  -25.7671   17.7137  -23.2034 C   0  0  0  0  0  0  0  0  0  0  0  0
  -21.7521   16.8019  -27.2026 C   0  0  0  0  0  0  0  0  0  0  0  0
  1  2  2  0
  1  3  1  0
  3  4  2  0
  4  5  1  0
  5  6  1  0
  6  7  1  0
  7  8  2  0
  4  9  1  0
  7 10  1  0
 10 11  1  0
  2 12  1  0
 10 13  2  0
  8 14  1  0
  6 15  2  0
  2 16  1  0
  9 16  2  0
  8 17  1  0
 13 18  1  0
 17 18  2  0
  9 19  1  0
 15 19  1  0
M  END
>  <ID>  (1) 
conformer_0

$$$$
