
     RDKit          3D

 17 18  0  0  0  0  0  0  0  0999 V2000
  -17.6943   16.9005  -26.4587 C   0  0  0  0  0  0  0  0  0  0  0  0
  -17.9829   16.4820  -27.5592 C   0  0  0  0  0  0  0  0  0  0  0  0
  -18.7002   17.1609  -25.4559 C   0  0  0  0  0  0  0  0  0  0  0  0
  -19.9407   17.2883  -25.6243 C   0  0  0  0  0  0  0  0  0  0  0  0
  -20.9515   17.5980  -24.7254 N   0  0  0  0  0  0  0  0  0  0  0  0
  -22.0217   18.0483  -25.1921 C   0  0  0  0  0  0  0  0  0  0  0  0
  -23.2906   17.7470  -24.4431 C   0  0  0  0  0  0  0  0  0  0  0  0
  -23.2784   17.0574  -23.2624 C   0  0  0  0  0  0  0  0  0  0  0  0
  -22.0231   18.9483  -26.1993 O   0  0  0  0  0  0  0  0  0  0  0  0
  -20.4589   16.7501  -27.1764 C   0  0  0  0  0  0  0  0  0  0  0  0
  -21.7674   16.6707  -27.3764 O   0  0  0  0  0  0  0  0  0  0  0  0
  -19.4662   16.3751  -27.9553 C   0  0  0  0  0  0  0  0  0  0  0  0
  -24.3910   18.4135  -24.7698 C   0  0  0  0  0  0  0  0  0  0  0  0
  -24.5180   16.7907  -22.6378 C   0  0  0  0  0  0  0  0  0  0  0  0
  -25.6151   18.2104  -24.1863 C   0  0  0  0  0  0  0  0  0  0  0  0
  -25.6290   17.4635  -23.0261 C   0  0  0  0  0  0  0  0  0  0  0  0
  -22.1172   16.4726  -28.7656 C   0  0  0  0  0  0  0  0  0  0  0  0
  1  2  2  0
  1  3  1  0
  3  4  2  0
  4  5  1  0
  5  6  1  0
  6  7  1  0
  7  8  1  0
  6  9  2  0
  4 10  1  0
 10 11  1  0
  2 12  1  0
 10 12  2  0
  7 13  2  0
  8 14  2  0
 13 15  1  0
 14 16  1  0
 15 16  2  0
 11 17  1  0
M  END
>  <ID>  (1) 
conformer_0

$$$$
