
     RDKit          3D

 21 24  0  0  0  0  0  0  0  0999 V2000
  -17.9427   16.4929  -27.4875 C   0  0  0  0  0  0  0  0  0  0  0  0
  -18.3554   16.8369  -26.4051 C   0  0  0  0  0  0  0  0  0  0  0  0
  -19.6347   16.9204  -26.0743 C   0  0  0  0  0  0  0  0  0  0  0  0
  -18.8095   16.1816  -28.5483 C   0  0  0  0  0  0  0  0  0  0  0  0
  -20.1193   17.1682  -24.7299 N   0  0  0  0  0  0  0  0  0  0  0  0
  -21.5066   17.2618  -24.7058 C   0  0  0  0  0  0  0  0  0  0  0  0
  -22.0299   17.1391  -26.1296 N   0  0  0  0  0  0  0  0  0  0  0  0
  -23.2781   17.2909  -26.5275 C   0  0  0  0  0  0  0  0  0  0  0  0
  -20.1770   16.3350  -28.3217 C   0  0  0  0  0  0  0  0  0  0  0  0
  -22.3558   17.3773  -23.5489 C   0  0  0  0  0  0  0  0  0  0  0  0
  -20.6331   16.7177  -26.9889 C   0  0  0  0  0  0  0  0  0  0  0  0
  -18.4803   15.8946  -29.8765 C   0  0  0  0  0  0  0  0  0  0  0  0
  -17.6498   16.4107  -30.4022 O   0  0  0  0  0  0  0  0  0  0  0  0
  -23.4894   17.2999  -27.8747 O   0  0  0  0  0  0  0  0  0  0  0  0
  -23.7791   17.5964  -23.9854 C   0  0  0  0  0  0  0  0  0  0  0  0
  -24.1398   17.6328  -25.3918 C   0  0  0  0  0  0  0  0  0  0  0  0
  -18.9021   14.7464  -30.3750 O   0  0  0  0  0  0  0  0  0  0  0  0
  -24.7958   17.8078  -22.9762 C   0  0  0  0  0  0  0  0  0  0  0  0
  -25.4304   17.9545  -25.7616 C   0  0  0  0  0  0  0  0  0  0  0  0
  -26.3832   18.2571  -24.7682 C   0  0  0  0  0  0  0  0  0  0  0  0
  -26.0972   18.1317  -23.4295 C   0  0  0  0  0  0  0  0  0  0  0  0
  1  2  2  0
  2  3  1  0
  1  4  1  0
  3  5  1  0
  5  6  2  0
  6  7  1  0
  7  8  1  0
  4  9  2  0
  6 10  1  0
  3 11  2  0
  7 11  1  0
  9 11  1  0
  4 12  1  0
 12 13  2  0
  8 14  2  0
 10 15  2  0
  8 16  1  0
 15 16  1  0
 12 17  1  0
 15 18  1  0
 16 19  2  0
 19 20  1  0
 18 21  2  0
 20 21  2  0
M  END
>  <ID>  (1) 
conformer_0

$$$$
