
     RDKit          3D

 19 20  0  0  0  0  0  0  0  0999 V2000
  -17.8160   16.8238  -26.3437 C   0  0  0  0  0  0  0  0  0  0  0  0
  -18.5274   17.3934  -25.3818 C   0  0  0  0  0  0  0  0  0  0  0  0
  -19.8970   17.4116  -25.4908 C   0  0  0  0  0  0  0  0  0  0  0  0
  -20.6995   17.9660  -24.4320 O   0  0  0  0  0  0  0  0  0  0  0  0
  -18.3784   16.2303  -27.4177 C   0  0  0  0  0  0  0  0  0  0  0  0
  -21.9514   17.2857  -24.2103 C   0  0  0  0  0  0  0  0  0  0  0  0
  -20.4510   16.7602  -26.4954 C   0  0  0  0  0  0  0  0  0  0  0  0
  -17.5740   15.5708  -28.4258 F   0  0  0  0  0  0  0  0  0  0  0  0
  -23.1546   18.0927  -24.5568 C   0  0  0  0  0  0  0  0  0  0  0  0
  -24.3424   17.6772  -23.9058 C   0  0  0  0  0  0  0  0  0  0  0  0
  -21.9905   16.7239  -26.6030 F   0  0  0  0  0  0  0  0  0  0  0  0
  -25.6861   18.1830  -24.2441 C   0  0  0  0  0  0  0  0  0  0  0  0
  -21.9323   16.1787  -23.5805 C   0  0  0  0  0  0  0  0  0  0  0  0
  -19.7768   16.1809  -27.4974 C   0  0  0  0  0  0  0  0  0  0  0  0
  -26.4992   18.2660  -23.3349 O   0  0  0  0  0  0  0  0  0  0  0  0
  -20.7577   15.4339  -23.3351 F   0  0  0  0  0  0  0  0  0  0  0  0
  -24.1974   16.4052  -23.1979 C   0  0  0  0  0  0  0  0  0  0  0  0
  -25.8285   19.1578  -25.1355 O   0  0  0  0  0  0  0  0  0  0  0  0
  -23.1068   15.7516  -22.9909 C   0  0  0  0  0  0  0  0  0  0  0  0
  1  2  2  0
  2  3  1  0
  3  4  1  0
  1  5  1  0
  4  6  1  0
  3  7  2  0
  5  8  1  0
  6  9  1  0
  9 10  2  0
  7 11  1  0
 10 12  1  0
  6 13  2  0
  5 14  2  0
  7 14  1  0
 12 15  1  0
 13 16  1  0
 10 17  1  0
 12 18  2  0
 13 19  1  0
 17 19  2  0
M  END
>  <ID>  (1) 
conformer_0

$$$$
