
     RDKit          3D

 17 19  0  0  0  0  0  0  0  0999 V2000
  -23.6655   16.6677  -22.8522 C   0  0  0  0  0  0  0  0  0  0  0  0
  -22.6521   16.9482  -23.6113 C   0  0  0  0  0  0  0  0  0  0  0  0
  -22.7020   17.7395  -24.6163 C   0  0  0  0  0  0  0  0  0  0  0  0
  -24.9331   17.2193  -23.1727 C   0  0  0  0  0  0  0  0  0  0  0  0
  -21.5167   17.9343  -25.5398 C   0  0  0  0  0  0  0  0  0  0  0  0
  -20.3660   17.9598  -25.1359 N   0  0  0  0  0  0  0  0  0  0  0  0
  -19.3039   17.0944  -25.6674 C   0  0  0  0  0  0  0  0  0  0  0  0
  -24.0090   18.1777  -25.0262 C   0  0  0  0  0  0  0  0  0  0  0  0
  -19.4619   16.4985  -26.6837 N   0  0  0  0  0  0  0  0  0  0  0  0
  -21.5640   17.1208  -26.8146 C   0  0  0  0  0  0  0  0  0  0  0  0
  -22.7960   17.2343  -27.6453 C   0  0  0  0  0  0  0  0  0  0  0  0
  -20.6307   16.5022  -27.3883 N   0  0  0  0  0  0  0  0  0  0  0  0
  -24.1499   18.9203  -26.2932 O   0  0  0  0  0  0  0  0  0  0  0  0
  -22.7175   17.0459  -28.9444 O   0  0  0  0  0  0  0  0  0  0  0  0
  -25.0688   17.9286  -24.3185 C   0  0  0  0  0  0  0  0  0  0  0  0
  -23.8489   18.1823  -27.2684 C   0  0  0  0  0  0  0  0  0  0  0  0
  -18.0452   17.1697  -24.9260 C   0  0  0  0  0  0  0  0  0  0  0  0
  1  2  1  0
  2  3  2  0
  1  4  2  0
  3  5  1  0
  5  6  1  0
  6  7  1  0
  3  8  1  0
  7  9  2  0
  5 10  1  0
 10 11  1  0
  9 12  1  0
 10 12  2  0
  8 13  1  0
 11 14  2  0
  4 15  1  0
  8 15  2  0
 11 16  1  0
 13 16  1  0
  7 17  1  0
M  END
>  <ID>  (1) 
conformer_0

$$$$
