
     RDKit          3D

 18 19  0  0  0  0  0  0  0  0999 V2000
  -17.6943   16.9005  -26.4587 C   0  0  0  0  0  0  0  0  0  0  0  0
  -17.9829   16.4820  -27.5592 C   0  0  0  0  0  0  0  0  0  0  0  0
  -18.7002   17.1609  -25.4559 C   0  0  0  0  0  0  0  0  0  0  0  0
  -19.9407   17.2883  -25.6243 C   0  0  0  0  0  0  0  0  0  0  0  0
  -20.9515   17.5980  -24.7254 N   0  0  0  0  0  0  0  0  0  0  0  0
  -22.0217   18.0483  -25.1921 C   0  0  0  0  0  0  0  0  0  0  0  0
  -23.2906   17.7470  -24.4431 C   0  0  0  0  0  0  0  0  0  0  0  0
  -23.2784   17.0574  -23.2624 C   0  0  0  0  0  0  0  0  0  0  0  0
  -22.0900   18.6705  -26.3638 O   0  0  0  0  0  0  0  0  0  0  0  0
  -22.2211   16.5104  -22.7755 F   0  0  0  0  0  0  0  0  0  0  0  0
  -20.3465   16.7391  -27.0010 C   0  0  0  0  0  0  0  0  0  0  0  0
  -24.4817   16.9508  -22.6601 C   0  0  0  0  0  0  0  0  0  0  0  0
  -21.7580   16.6492  -27.2474 O   0  0  0  0  0  0  0  0  0  0  0  0
  -19.4695   16.3451  -27.8647 C   0  0  0  0  0  0  0  0  0  0  0  0
  -22.0866   16.9914  -28.5117 C   0  0  0  0  0  0  0  0  0  0  0  0
  -25.6099   17.6907  -23.2823 C   0  0  0  0  0  0  0  0  0  0  0  0
  -24.3554   18.4174  -24.9731 C   0  0  0  0  0  0  0  0  0  0  0  0
  -25.4944   18.3381  -24.3361 C   0  0  0  0  0  0  0  0  0  0  0  0
  1  2  2  0
  1  3  1  0
  3  4  2  0
  4  5  1  0
  5  6  1  0
  6  7  1  0
  7  8  1  0
  6  9  2  0
  8 10  1  0
  4 11  1  0
  8 12  2  0
 11 13  1  0
  2 14  1  0
 11 14  2  0
 13 15  1  0
 12 16  1  0
  7 17  2  0
 16 18  2  0
 17 18  1  0
M  END
>  <ID>  (1) 
conformer_0

$$$$
