
     RDKit          3D

 19 20  0  0  0  0  0  0  0  0999 V2000
  -18.3210   15.4752  -29.6356 C   0  0  0  0  0  0  0  0  0  0  0  0
  -18.2820   15.8607  -28.4009 C   0  0  0  0  0  0  0  0  0  0  0  0
  -19.2857   15.9251  -27.7009 C   0  0  0  0  0  0  0  0  0  0  0  0
  -19.5428   15.5078  -30.3490 N   0  0  0  0  0  0  0  0  0  0  0  0
  -20.5458   15.9327  -28.2500 C   0  0  0  0  0  0  0  0  0  0  0  0
  -21.7308   16.2131  -27.4295 C   0  0  0  0  0  0  0  0  0  0  0  0
  -22.3963   17.3514  -27.7887 N   0  0  0  0  0  0  0  0  0  0  0  0
  -19.1130   16.2460  -26.1665 C   0  0  0  0  0  0  0  0  0  0  0  0
  -20.6811   15.7579  -29.5736 C   0  0  0  0  0  0  0  0  0  0  0  0
  -23.1723   18.0935  -26.9229 C   0  0  0  0  0  0  0  0  0  0  0  0
  -24.5010   18.1501  -27.0368 C   0  0  0  0  0  0  0  0  0  0  0  0
  -25.0658   17.6269  -28.1303 O   0  0  0  0  0  0  0  0  0  0  0  0
  -22.4062   18.6144  -25.7655 C   0  0  0  0  0  0  0  0  0  0  0  0
  -20.9877   18.6415  -25.6685 O   0  0  0  0  0  0  0  0  0  0  0  0
  -26.4768   17.6449  -28.0724 C   0  0  0  0  0  0  0  0  0  0  0  0
  -25.1621   18.6630  -25.8635 C   0  0  0  0  0  0  0  0  0  0  0  0
  -18.0047   16.8706  -25.7208 C   0  0  0  0  0  0  0  0  0  0  0  0
  -24.5399   18.9626  -24.7031 C   0  0  0  0  0  0  0  0  0  0  0  0
  -23.1522   18.9280  -24.5692 C   0  0  0  0  0  0  0  0  0  0  0  0
  1  2  1  0
  2  3  2  0
  1  4  2  0
  3  5  1  0
  5  6  1  0
  6  7  1  0
  3  8  1  0
  4  9  1  0
  5  9  2  0
  7 10  1  0
 10 11  2  0
 11 12  1  0
 10 13  1  0
 13 14  1  0
 12 15  1  0
 11 16  1  0
  8 17  1  0
 16 18  2  0
 13 19  2  0
 18 19  1  0
M  END
>  <ID>  (1) 
conformer_0

$$$$
