
     RDKit          3D

 21 24  0  0  0  0  0  0  0  0999 V2000
  -18.4216   17.1921  -24.9537 C   0  0  0  0  0  0  0  0  0  0  0  0
  -17.6482   17.3332  -26.0552 C   0  0  0  0  0  0  0  0  0  0  0  0
  -19.8324   17.2426  -25.3314 C   0  0  0  0  0  0  0  0  0  0  0  0
  -20.7796   17.4645  -24.5126 N   0  0  0  0  0  0  0  0  0  0  0  0
  -20.1493   17.0913  -26.6613 C   0  0  0  0  0  0  0  0  0  0  0  0
  -21.5150   17.1607  -26.9201 C   0  0  0  0  0  0  0  0  0  0  0  0
  -19.1502   16.7959  -27.6641 C   0  0  0  0  0  0  0  0  0  0  0  0
  -22.0236   17.4053  -25.3584 N   0  0  0  0  0  0  0  0  0  0  0  0
  -22.4195   17.0752  -27.8932 C   0  0  0  0  0  0  0  0  0  0  0  0
  -21.9886   16.7924  -29.0402 C   0  0  0  0  0  0  0  0  0  0  0  0
  -23.5627   18.0212  -27.8910 C   0  0  0  0  0  0  0  0  0  0  0  0
  -17.8652   16.5161  -27.1616 C   0  0  0  0  0  0  0  0  0  0  0  0
  -23.1484   17.1064  -24.6523 C   0  0  0  0  0  0  0  0  0  0  0  0
  -22.6926   16.8076  -30.2417 C   0  0  0  0  0  0  0  0  0  0  0  0
  -24.2672   17.9978  -25.0121 C   0  0  0  0  0  0  0  0  0  0  0  0
  -24.3851   18.1185  -29.0060 C   0  0  0  0  0  0  0  0  0  0  0  0
  -25.2421   18.0656  -24.3069 C   0  0  0  0  0  0  0  0  0  0  0  0
  -23.9118   17.5544  -30.1840 C   0  0  0  0  0  0  0  0  0  0  0  0
  -23.0917   16.6904  -23.3336 C   0  0  0  0  0  0  0  0  0  0  0  0
  -24.2660   16.6597  -22.6251 C   0  0  0  0  0  0  0  0  0  0  0  0
  -25.3461   17.4225  -23.0348 C   0  0  0  0  0  0  0  0  0  0  0  0
  1  2  1  0
  1  3  1  0
  3  4  2  0
  3  5  1  0
  5  6  2  0
  5  7  1  0
  4  8  1  0
  6  8  1  0
  6  9  1  0
  9 10  2  0
  9 11  1  0
  2 12  1  0
  7 12  1  0
  8 13  1  0
 10 14  1  0
 13 15  1  0
 11 16  2  0
 15 17  2  0
 14 18  2  0
 16 18  1  0
 13 19  2  0
 19 20  1  0
 17 21  1  0
 20 21  2  0
M  END
>  <ID>  (1) 
conformer_0

$$$$
