
     RDKit          3D

 19 22  0  0  0  0  0  0  0  0999 V2000
  -23.6655   16.6677  -22.8522 C   0  0  0  0  0  0  0  0  0  0  0  0
  -22.6521   16.9482  -23.6113 C   0  0  0  0  0  0  0  0  0  0  0  0
  -22.7020   17.7395  -24.6163 C   0  0  0  0  0  0  0  0  0  0  0  0
  -24.9331   17.2193  -23.1727 C   0  0  0  0  0  0  0  0  0  0  0  0
  -21.5167   17.9343  -25.5398 C   0  0  0  0  0  0  0  0  0  0  0  0
  -20.3660   17.9598  -25.1359 N   0  0  0  0  0  0  0  0  0  0  0  0
  -19.3039   17.0944  -25.6674 C   0  0  0  0  0  0  0  0  0  0  0  0
  -24.0090   18.1777  -25.0262 C   0  0  0  0  0  0  0  0  0  0  0  0
  -19.4619   16.4985  -26.6837 N   0  0  0  0  0  0  0  0  0  0  0  0
  -21.5640   17.1208  -26.8146 C   0  0  0  0  0  0  0  0  0  0  0  0
  -22.7960   17.2343  -27.6453 C   0  0  0  0  0  0  0  0  0  0  0  0
  -25.0146   18.0009  -24.2766 C   0  0  0  0  0  0  0  0  0  0  0  0
  -20.5703   16.4130  -27.3100 C   0  0  0  0  0  0  0  0  0  0  0  0
  -20.8627   15.7085  -28.5431 C   0  0  0  0  0  0  0  0  0  0  0  0
  -23.8276   18.2329  -27.2486 O   0  0  0  0  0  0  0  0  0  0  0  0
  -22.7896   16.8787  -28.7635 N   0  0  0  0  0  0  0  0  0  0  0  0
  -24.1242   19.0026  -26.1322 O   0  0  0  0  0  0  0  0  0  0  0  0
  -17.9285   17.1686  -24.9254 C   0  0  0  0  0  0  0  0  0  0  0  0
  -21.8690   16.1806  -29.3076 C   0  0  0  0  0  0  0  0  0  0  0  0
  1  2  1  0
  2  3  2  0
  1  4  2  0
  3  5  1  0
  5  6  1  0
  6  7  1  0
  3  8  1  0
  7  9  2  0
  5 10  1  0
 10 11  1  0
  4 12  1  0
  8 12  2  0
  9 13  1  0
 10 13  2  0
 13 14  1  0
 11 15  1  0
 11 16  2  0
  8 17  1  0
 15 17  1  0
  7 18  1  0
 14 19  2  0
 16 19  1  0
M  END
>  <ID>  (1) 
conformer_0

$$$$
