
     RDKit          3D

 19 20  0  0  0  0  0  0  0  0999 V2000
  -17.6943   16.9005  -26.4587 C   0  0  0  0  0  0  0  0  0  0  0  0
  -17.9829   16.4820  -27.5592 C   0  0  0  0  0  0  0  0  0  0  0  0
  -18.7002   17.1609  -25.4559 C   0  0  0  0  0  0  0  0  0  0  0  0
  -19.9407   17.2883  -25.6243 C   0  0  0  0  0  0  0  0  0  0  0  0
  -20.9515   17.5980  -24.7254 N   0  0  0  0  0  0  0  0  0  0  0  0
  -22.0217   18.0483  -25.1921 C   0  0  0  0  0  0  0  0  0  0  0  0
  -23.2906   17.7470  -24.4431 C   0  0  0  0  0  0  0  0  0  0  0  0
  -24.3780   18.2720  -24.9484 C   0  0  0  0  0  0  0  0  0  0  0  0
  -20.3447   16.7376  -26.9559 C   0  0  0  0  0  0  0  0  0  0  0  0
  -19.4178   16.3258  -27.8592 C   0  0  0  0  0  0  0  0  0  0  0  0
  -23.3783   17.1890  -23.1518 C   0  0  0  0  0  0  0  0  0  0  0  0
  -19.8550   15.8053  -29.3039 C   0  0  0  0  0  0  0  0  0  0  0  0
  -20.9701   16.1958  -29.7835 O   0  0  0  0  0  0  0  0  0  0  0  0
  -22.1783   18.7374  -26.2706 O   0  0  0  0  0  0  0  0  0  0  0  0
  -24.5378   16.9636  -22.5346 C   0  0  0  0  0  0  0  0  0  0  0  0
  -19.1408   14.9217  -29.8430 O   0  0  0  0  0  0  0  0  0  0  0  0
  -25.7089   18.0484  -24.1708 C   0  0  0  0  0  0  0  0  0  0  0  0
  -26.9346   18.6061  -24.8411 C   0  0  0  0  0  0  0  0  0  0  0  0
  -25.7185   17.5107  -23.0344 C   0  0  0  0  0  0  0  0  0  0  0  0
  1  2  2  0
  1  3  1  0
  3  4  2  0
  4  5  1  0
  5  6  1  0
  6  7  1  0
  7  8  2  0
  4  9  1  0
  2 10  1  0
  9 10  2  0
  7 11  1  0
 10 12  1  0
 12 13  2  0
  6 14  2  0
 11 15  2  0
 12 16  1  0
  8 17  1  0
 17 18  1  0
 15 19  1  0
 17 19  2  0
M  END
>  <ID>  (1) 
conformer_0

$$$$
