
     RDKit          3D

 18 21  0  0  0  0  0  0  0  0999 V2000
  -18.2290   15.8884  -28.0653 C   0  0  0  0  0  0  0  0  0  0  0  0
  -18.3143   16.5694  -26.9401 C   0  0  0  0  0  0  0  0  0  0  0  0
  -17.2891   16.8574  -26.0759 C   0  0  0  0  0  0  0  0  0  0  0  0
  -19.3902   15.7298  -28.8173 C   0  0  0  0  0  0  0  0  0  0  0  0
  -20.3786   16.3932  -28.5458 C   0  0  0  0  0  0  0  0  0  0  0  0
  -19.7606   17.0758  -26.4734 C   0  0  0  0  0  0  0  0  0  0  0  0
  -20.7494   16.9167  -27.3452 C   0  0  0  0  0  0  0  0  0  0  0  0
  -21.6319   16.1205  -29.5464 C   0  0  0  0  0  0  0  0  0  0  0  0
  -22.0183   17.4171  -27.0665 C   0  0  0  0  0  0  0  0  0  0  0  0
  -22.7823   16.8412  -29.3188 C   0  0  0  0  0  0  0  0  0  0  0  0
  -22.9683   17.6261  -28.0341 C   0  0  0  0  0  0  0  0  0  0  0  0
  -19.7971   17.6422  -25.2478 C   0  0  0  0  0  0  0  0  0  0  0  0
  -24.0464   18.3086  -27.7488 O   0  0  0  0  0  0  0  0  0  0  0  0
  -23.0285   17.7451  -30.2745 O   0  0  0  0  0  0  0  0  0  0  0  0
  -22.2574   18.0459  -25.7662 C   0  0  0  0  0  0  0  0  0  0  0  0
  -18.7301   17.6470  -24.3247 C   0  0  0  0  0  0  0  0  0  0  0  0
  -21.1653   18.0398  -24.8146 C   0  0  0  0  0  0  0  0  0  0  0  0
  -17.4620   17.1974  -24.8497 C   0  0  0  0  0  0  0  0  0  0  0  0
  1  2  2  0
  2  3  1  0
  1  4  1  0
  4  5  2  0
  2  6  1  0
  5  7  1  0
  6  7  1  0
  5  8  1  0
  7  9  2  0
  8 10  1  0
  9 11  1  0
 10 11  1  0
  6 12  2  0
 11 13  2  0
 10 14  1  0
  9 15  1  0
 12 16  1  0
 12 17  1  0
 15 17  2  0
  3 18  2  0
 16 18  1  0
M  END
>  <ID>  (1) 
conformer_0

$$$$
