
     RDKit          3D

 17 19  0  0  0  0  0  0  0  0999 V2000
  -18.3354   15.6064  -28.8411 C   0  0  0  0  0  0  0  0  0  0  0  0
  -19.1300   16.0703  -29.7236 C   0  0  0  0  0  0  0  0  0  0  0  0
  -18.4916   16.0378  -27.5162 C   0  0  0  0  0  0  0  0  0  0  0  0
  -19.6541   16.6148  -27.1369 C   0  0  0  0  0  0  0  0  0  0  0  0
  -20.4224   16.7031  -29.2805 C   0  0  0  0  0  0  0  0  0  0  0  0
  -20.6154   16.9737  -28.0281 C   0  0  0  0  0  0  0  0  0  0  0  0
  -21.8900   17.5117  -27.7438 C   0  0  0  0  0  0  0  0  0  0  0  0
  -22.1605   17.9598  -26.3875 C   0  0  0  0  0  0  0  0  0  0  0  0
  -19.7960   16.8374  -25.6989 C   0  0  0  0  0  0  0  0  0  0  0  0
  -23.3419   18.5033  -25.9170 C   0  0  0  0  0  0  0  0  0  0  0  0
  -23.8683   18.1311  -24.7761 C   0  0  0  0  0  0  0  0  0  0  0  0
  -25.2160   18.5458  -24.4143 O   0  0  0  0  0  0  0  0  0  0  0  0
  -23.2511   17.4248  -23.7397 C   0  0  0  0  0  0  0  0  0  0  0  0
  -19.1053   16.5345  -24.6970 O   0  0  0  0  0  0  0  0  0  0  0  0
  -21.2670   17.2604  -25.2871 C   0  0  0  0  0  0  0  0  0  0  0  0
  -21.8338   17.0892  -24.0722 C   0  0  0  0  0  0  0  0  0  0  0  0
  -25.9543   17.8538  -23.4892 C   0  0  0  0  0  0  0  0  0  0  0  0
  1  2  2  0
  1  3  1  0
  3  4  2  0
  2  5  1  0
  4  6  1  0
  5  6  2  0
  6  7  1  0
  7  8  2  0
  4  9  1  0
  8 10  1  0
 10 11  2  0
 11 12  1  0
 11 13  1  0
  9 14  2  0
  8 15  1  0
  9 15  1  0
 13 16  2  0
 15 16  2  0
 12 17  1  0
M  END
>  <ID>  (1) 
conformer_0

$$$$
