
     RDKit          3D

 18 21  0  0  0  0  0  0  0  0999 V2000
  -17.9427   16.4929  -27.4875 C   0  0  0  0  0  0  0  0  0  0  0  0
  -18.3554   16.8369  -26.4051 C   0  0  0  0  0  0  0  0  0  0  0  0
  -19.6347   16.9204  -26.0743 C   0  0  0  0  0  0  0  0  0  0  0  0
  -18.8095   16.1816  -28.5483 C   0  0  0  0  0  0  0  0  0  0  0  0
  -20.1193   17.1682  -24.7299 N   0  0  0  0  0  0  0  0  0  0  0  0
  -21.5066   17.2618  -24.7058 C   0  0  0  0  0  0  0  0  0  0  0  0
  -22.0299   17.1391  -26.1296 N   0  0  0  0  0  0  0  0  0  0  0  0
  -23.2781   17.2909  -26.5275 C   0  0  0  0  0  0  0  0  0  0  0  0
  -20.8217   16.8112  -26.8398 C   0  0  0  0  0  0  0  0  0  0  0  0
  -22.4179   17.5575  -23.7005 C   0  0  0  0  0  0  0  0  0  0  0  0
  -18.4420   15.8772  -29.8263 N   0  0  0  0  0  0  0  0  0  0  0  0
  -23.7462   17.8969  -24.1909 C   0  0  0  0  0  0  0  0  0  0  0  0
  -20.2695   16.4331  -28.3248 C   0  0  0  0  0  0  0  0  0  0  0  0
  -24.1203   17.8652  -25.5255 C   0  0  0  0  0  0  0  0  0  0  0  0
  -23.2138   17.8045  -27.8735 C   0  0  0  0  0  0  0  0  0  0  0  0
  -24.8033   18.2103  -23.3038 C   0  0  0  0  0  0  0  0  0  0  0  0
  -25.9887   18.4664  -24.1288 C   0  0  0  0  0  0  0  0  0  0  0  0
  -25.5156   18.2315  -25.4873 O   0  0  0  0  0  0  0  0  0  0  0  0
  1  2  2  0
  2  3  1  0
  1  4  1  0
  3  5  1  0
  5  6  2  0
  6  7  1  0
  7  8  1  0
  3  9  2  0
  7  9  1  0
  6 10  1  0
  4 11  1  0
 10 12  1  0
  4 13  2  0
  9 13  1  0
  8 14  1  0
 12 14  2  0
  8 15  1  0
 12 16  1  0
 16 17  2  0
 14 18  1  0
 17 18  1  0
M  END
>  <ID>  (1) 
conformer_0

$$$$
