
     RDKit          3D

 20 22  0  0  0  0  0  0  0  0999 V2000
  -18.1165   15.7539  -29.7538 C   0  0  0  0  0  0  0  0  0  0  0  0
  -18.1876   16.0307  -28.4400 C   0  0  0  0  0  0  0  0  0  0  0  0
  -19.2995   16.1294  -27.7308 C   0  0  0  0  0  0  0  0  0  0  0  0
  -19.4592   15.5601  -30.2945 N   0  0  0  0  0  0  0  0  0  0  0  0
  -19.5854   15.2861  -31.7434 C   0  0  0  0  0  0  0  0  0  0  0  0
  -20.5307   16.0514  -28.3103 C   0  0  0  0  0  0  0  0  0  0  0  0
  -20.5257   15.7761  -29.4955 C   0  0  0  0  0  0  0  0  0  0  0  0
  -21.6276   16.3017  -27.3548 C   0  0  0  0  0  0  0  0  0  0  0  0
  -21.2664   16.8495  -26.0591 C   0  0  0  0  0  0  0  0  0  0  0  0
  -22.3840   17.1470  -25.0744 C   0  0  0  0  0  0  0  0  0  0  0  0
  -22.2476   16.7120  -23.8173 C   0  0  0  0  0  0  0  0  0  0  0  0
  -23.4413   17.8903  -25.4343 C   0  0  0  0  0  0  0  0  0  0  0  0
  -19.0410   16.5410  -26.2148 C   0  0  0  0  0  0  0  0  0  0  0  0
  -21.6708   15.7495  -30.1354 O   0  0  0  0  0  0  0  0  0  0  0  0
  -17.6964   16.6256  -25.7026 C   0  0  0  0  0  0  0  0  0  0  0  0
  -23.1808   16.9205  -22.8904 C   0  0  0  0  0  0  0  0  0  0  0  0
  -20.0775   16.9310  -25.5256 C   0  0  0  0  0  0  0  0  0  0  0  0
  -23.5695   18.4547  -26.8057 O   0  0  0  0  0  0  0  0  0  0  0  0
  -24.4513   18.1576  -24.5792 C   0  0  0  0  0  0  0  0  0  0  0  0
  -24.4045   17.6095  -23.2742 C   0  0  0  0  0  0  0  0  0  0  0  0
  1  2  2  0
  2  3  1  0
  1  4  1  0
  4  5  1  0
  3  6  2  0
  4  7  1  0
  6  7  1  0
  6  8  1  0
  8  9  2  0
  9 10  1  0
 10 11  2  0
 10 12  1  0
  3 13  1  0
  7 14  2  0
 13 15  1  0
 11 16  1  0
  9 17  1  0
 13 17  2  0
 12 18  1  0
 12 19  2  0
 16 20  2  0
 19 20  1  0
M  END
>  <ID>  (1) 
conformer_0

$$$$
