
     RDKit          3D

 18 21  0  0  0  0  0  0  0  0999 V2000
  -18.4216   17.1921  -24.9537 C   0  0  0  0  0  0  0  0  0  0  0  0
  -17.6482   17.3332  -26.0552 C   0  0  0  0  0  0  0  0  0  0  0  0
  -18.2051   16.5594  -27.1966 C   0  0  0  0  0  0  0  0  0  0  0  0
  -19.3496   16.1725  -27.3092 C   0  0  0  0  0  0  0  0  0  0  0  0
  -19.7693   16.9012  -25.0485 C   0  0  0  0  0  0  0  0  0  0  0  0
  -19.8930   15.4986  -28.4929 O   0  0  0  0  0  0  0  0  0  0  0  0
  -20.5971   17.0759  -23.9441 N   0  0  0  0  0  0  0  0  0  0  0  0
  -21.8637   17.2914  -24.1745 C   0  0  0  0  0  0  0  0  0  0  0  0
  -22.7960   17.6208  -23.1328 C   0  0  0  0  0  0  0  0  0  0  0  0
  -22.3986   17.3041  -25.4889 C   0  0  0  0  0  0  0  0  0  0  0  0
  -24.1976   17.6759  -23.5795 C   0  0  0  0  0  0  0  0  0  0  0  0
  -21.3223   17.1492  -26.5230 C   0  0  0  0  0  0  0  0  0  0  0  0
  -21.8295   17.1878  -27.8759 N   0  0  0  0  0  0  0  0  0  0  0  0
  -24.3696   17.7122  -25.0874 C   0  0  0  0  0  0  0  0  0  0  0  0
  -23.4846   17.6002  -25.9224 C   0  0  0  0  0  0  0  0  0  0  0  0
  -20.2063   16.7308  -26.2932 C   0  0  0  0  0  0  0  0  0  0  0  0
  -23.9256   17.6559  -27.2572 C   0  0  0  0  0  0  0  0  0  0  0  0
  -23.0203   17.4682  -28.2097 C   0  0  0  0  0  0  0  0  0  0  0  0
  1  2  2  0
  2  3  1  0
  3  4  2  0
  1  5  1  0
  4  6  1  0
  5  7  1  0
  7  8  2  0
  8  9  1  0
  8 10  1  0
  9 11  2  0
 10 12  1  0
 12 13  2  0
 11 14  1  0
 10 15  1  0
 14 15  2  0
  4 16  1  0
  5 16  2  0
 12 16  1  0
 15 17  1  0
 13 18  1  0
 17 18  2  0
M  END
>  <ID>  (1) 
conformer_0

$$$$
