
     RDKit          3D

  7  7  0  0  0  0  0  0  0  0999 V2000
  -17.6126   16.7752  -27.6404 C   0  0  0  0  0  0  0  0  0  0  0  0
  -18.0367   16.9711  -26.4676 C   0  0  0  0  0  0  0  0  0  0  0  0
  -18.3499   15.9647  -28.4986 C   0  0  0  0  0  0  0  0  0  0  0  0
  -17.2440   17.6939  -25.3880 C   0  0  0  0  0  0  0  0  0  0  0  0
  -19.6003   15.6288  -28.2978 N   0  0  0  0  0  0  0  0  0  0  0  0
  -20.0960   15.9346  -27.0313 C   0  0  0  0  0  0  0  0  0  0  0  0
  -19.3050   16.7370  -26.0651 C   0  0  0  0  0  0  0  0  0  0  0  0
  1  2  1  0
  1  3  2  0
  2  4  1  0
  3  5  1  0
  5  6  2  0
  2  7  2  0
  6  7  1  0
M  END
>  <ID>  (1) 
conformer_0

$$$$
