
     RDKit          3D

 17 19  0  0  0  0  0  0  0  0999 V2000
  -17.9427   16.4929  -27.4875 C   0  0  0  0  0  0  0  0  0  0  0  0
  -18.3554   16.8369  -26.4051 C   0  0  0  0  0  0  0  0  0  0  0  0
  -17.4901   17.2688  -25.3673 C   0  0  0  0  0  0  0  0  0  0  0  0
  -19.7296   17.0145  -26.2520 C   0  0  0  0  0  0  0  0  0  0  0  0
  -20.3806   17.3886  -24.9364 N   0  0  0  0  0  0  0  0  0  0  0  0
  -20.6176   16.5896  -27.2019 C   0  0  0  0  0  0  0  0  0  0  0  0
  -18.8235   15.9611  -28.5402 N   0  0  0  0  0  0  0  0  0  0  0  0
  -20.1526   16.1019  -28.3713 C   0  0  0  0  0  0  0  0  0  0  0  0
  -20.9053   15.9511  -29.3956 N   0  0  0  0  0  0  0  0  0  0  0  0
  -21.6105   17.1857  -24.7174 C   0  0  0  0  0  0  0  0  0  0  0  0
  -22.1912   17.5047  -23.4864 O   0  0  0  0  0  0  0  0  0  0  0  0
  -23.5403   17.7269  -23.7056 C   0  0  0  0  0  0  0  0  0  0  0  0
  -22.0258   16.6243  -27.0392 C   0  0  0  0  0  0  0  0  0  0  0  0
  -22.6008   17.0156  -25.8352 C   0  0  0  0  0  0  0  0  0  0  0  0
  -23.7765   17.4235  -25.2279 C   0  0  0  0  0  0  0  0  0  0  0  0
  -24.3334   16.8517  -22.8248 C   0  0  0  0  0  0  0  0  0  0  0  0
  -24.7723   17.6614  -25.9188 O   0  0  0  0  0  0  0  0  0  0  0  0
  1  2  2  0
  2  3  1  0
  2  4  1  0
  4  5  1  0
  4  6  2  0
  1  7  1  0
  6  8  1  0
  7  8  2  0
  8  9  1  0
  5 10  2  0
 10 11  1  0
 11 12  1  0
  6 13  1  0
 10 14  1  0
 13 14  2  0
 12 15  1  0
 14 15  1  0
 12 16  1  0
 15 17  2  0
M  END
>  <ID>  (1) 
conformer_0

$$$$
