
     RDKit          3D

 11 12  0  0  0  0  0  0  0  0999 V2000
  -23.6655   16.6677  -22.8522 C   0  0  0  0  0  0  0  0  0  0  0  0
  -24.7537   16.8578  -22.6614 C   0  0  0  0  0  0  0  0  0  0  0  0
  -23.0618   17.4359  -24.0316 C   0  0  0  0  0  0  0  0  0  0  0  0
  -21.6772   17.2132  -24.4635 N   0  0  0  0  0  0  0  0  0  0  0  0
  -25.5239   17.8396  -23.5803 C   0  0  0  0  0  0  0  0  0  0  0  0
  -23.7120   18.1710  -24.8798 C   0  0  0  0  0  0  0  0  0  0  0  0
  -25.0590   18.3932  -24.6585 C   0  0  0  0  0  0  0  0  0  0  0  0
  -22.7937   18.6034  -25.9128 N   0  0  0  0  0  0  0  0  0  0  0  0
  -21.6482   18.0253  -25.5903 C   0  0  0  0  0  0  0  0  0  0  0  0
  -20.4898   18.3086  -26.1964 O   0  0  0  0  0  0  0  0  0  0  0  0
  -23.1456   19.3724  -26.8843 O   0  0  0  0  0  0  0  0  0  0  0  0
  1  2  2  0
  1  3  1  0
  3  4  1  0
  2  5  1  0
  3  6  2  0
  5  7  2  0
  6  7  1  0
  6  8  1  0
  4  9  1  0
  8  9  1  0
  9 10  2  0
  8 11  1  0
M  END
>  <ID>  (1) 
conformer_0

$$$$
