
     RDKit          3D

 19 21  0  0  0  0  0  0  0  0999 V2000
  -23.6655   16.6677  -22.8522 C   0  0  0  0  0  0  0  0  0  0  0  0
  -24.7537   16.8578  -22.6614 C   0  0  0  0  0  0  0  0  0  0  0  0
  -23.0618   17.4359  -24.0316 C   0  0  0  0  0  0  0  0  0  0  0  0
  -21.6772   17.2132  -24.4635 N   0  0  0  0  0  0  0  0  0  0  0  0
  -23.9788   18.1254  -24.8079 C   0  0  0  0  0  0  0  0  0  0  0  0
  -23.3566   18.8467  -26.0008 O   0  0  0  0  0  0  0  0  0  0  0  0
  -21.0751   16.3814  -25.0307 C   0  0  0  0  0  0  0  0  0  0  0  0
  -20.2525   16.7337  -26.1999 C   0  0  0  0  0  0  0  0  0  0  0  0
  -25.2553   18.3339  -24.4522 C   0  0  0  0  0  0  0  0  0  0  0  0
  -23.2284   18.0897  -27.1337 C   0  0  0  0  0  0  0  0  0  0  0  0
  -19.2562   17.6297  -25.9748 C   0  0  0  0  0  0  0  0  0  0  0  0
  -21.9558   18.3131  -27.7602 C   0  0  0  0  0  0  0  0  0  0  0  0
  -24.0680   17.5133  -27.7276 O   0  0  0  0  0  0  0  0  0  0  0  0
  -21.2598   17.2125  -28.3795 C   0  0  0  0  0  0  0  0  0  0  0  0
  -25.7323   17.6792  -23.3491 C   0  0  0  0  0  0  0  0  0  0  0  0
  -18.3386   17.8099  -27.0275 C   0  0  0  0  0  0  0  0  0  0  0  0
  -20.3897   16.0797  -27.4671 C   0  0  0  0  0  0  0  0  0  0  0  0
  -19.2170   16.0169  -28.1403 C   0  0  0  0  0  0  0  0  0  0  0  0
  -18.0169   16.6500  -27.7941 C   0  0  0  0  0  0  0  0  0  0  0  0
  1  2  2  0
  1  3  1  0
  3  4  1  0
  3  5  2  0
  5  6  1  0
  4  7  1  0
  7  8  1  0
  5  9  1  0
  6 10  1  0
  8 11  2  0
 10 12  1  0
 10 13  2  0
 12 14  1  0
  2 15  1  0
  9 15  2  0
 11 16  1  0
  8 17  1  0
 14 17  1  0
 17 18  1  0
 16 19  1  0
 18 19  1  0
M  END
>  <ID>  (1) 
conformer_0

$$$$
