
     RDKit          3D

 20 23  0  0  0  0  0  0  0  0999 V2000
  -18.2180   15.6814  -28.9250 C   0  0  0  0  0  0  0  0  0  0  0  0
  -18.3674   16.1716  -27.6769 C   0  0  0  0  0  0  0  0  0  0  0  0
  -19.3611   15.7661  -29.7741 C   0  0  0  0  0  0  0  0  0  0  0  0
  -19.5526   16.6290  -27.1973 C   0  0  0  0  0  0  0  0  0  0  0  0
  -20.6231   16.6400  -28.1908 C   0  0  0  0  0  0  0  0  0  0  0  0
  -19.7800   17.2008  -25.8061 C   0  0  0  0  0  0  0  0  0  0  0  0
  -21.9822   17.1683  -27.6121 N   0  0  0  0  0  0  0  0  0  0  0  0
  -18.7288   17.2151  -25.0675 O   0  0  0  0  0  0  0  0  0  0  0  0
  -22.0070   17.6148  -26.3039 C   0  0  0  0  0  0  0  0  0  0  0  0
  -23.3030   17.9167  -25.8603 C   0  0  0  0  0  0  0  0  0  0  0  0
  -20.9416   17.5044  -25.3756 C   0  0  0  0  0  0  0  0  0  0  0  0
  -23.6707   17.8597  -24.5956 C   0  0  0  0  0  0  0  0  0  0  0  0
  -24.1680   17.9670  -26.8604 C   0  0  0  0  0  0  0  0  0  0  0  0
  -23.1496   17.5279  -28.1645 C   0  0  0  0  0  0  0  0  0  0  0  0
  -23.4875   17.5582  -29.3340 O   0  0  0  0  0  0  0  0  0  0  0  0
  -24.9984   18.2389  -24.2831 C   0  0  0  0  0  0  0  0  0  0  0  0
  -19.2114   15.3055  -31.1463 O   0  0  0  0  0  0  0  0  0  0  0  0
  -25.4262   18.2633  -26.7338 C   0  0  0  0  0  0  0  0  0  0  0  0
  -25.8570   18.4611  -25.4772 C   0  0  0  0  0  0  0  0  0  0  0  0
  -20.4364   16.2099  -29.4858 C   0  0  0  0  0  0  0  0  0  0  0  0
  1  2  1  0
  1  3  2  0
  2  4  2  0
  4  5  1  0
  4  6  1  0
  5  7  1  0
  6  8  2  0
  7  9  1  0
  9 10  1  0
  6 11  1  0
  9 11  2  0
 10 12  1  0
 10 13  2  0
  7 14  1  0
 13 14  1  0
 14 15  2  0
 12 16  2  0
  3 17  1  0
 13 18  1  0
 16 19  1  0
 18 19  2  0
  3 20  1  0
  5 20  2  0
M  END
>  <ID>  (1) 
conformer_0

$$$$
