
     RDKit          3D

 15 17  0  0  0  0  0  0  0  0999 V2000
  -22.6939   16.5988  -23.1331 C   0  0  0  0  0  0  0  0  0  0  0  0
  -21.8898   16.7024  -24.1265 C   0  0  0  0  0  0  0  0  0  0  0  0
  -23.9982   17.1696  -23.1640 C   0  0  0  0  0  0  0  0  0  0  0  0
  -20.5874   16.1750  -24.2249 C   0  0  0  0  0  0  0  0  0  0  0  0
  -19.6185   17.1281  -24.8415 C   0  0  0  0  0  0  0  0  0  0  0  0
  -22.2728   17.6614  -25.2424 C   0  0  0  0  0  0  0  0  0  0  0  0
  -19.9662   17.7716  -26.0464 C   0  0  0  0  0  0  0  0  0  0  0  0
  -19.9384   16.9583  -27.1573 C   0  0  0  0  0  0  0  0  0  0  0  0
  -23.2784   18.5415  -25.0566 C   0  0  0  0  0  0  0  0  0  0  0  0
  -19.0528   16.0875  -27.4184 C   0  0  0  0  0  0  0  0  0  0  0  0
  -21.2931   17.9993  -26.2968 C   0  0  0  0  0  0  0  0  0  0  0  0
  -23.6590   19.4371  -26.1562 O   0  0  0  0  0  0  0  0  0  0  0  0
  -17.8699   16.6803  -27.7332 O   0  0  0  0  0  0  0  0  0  0  0  0
  -24.3960   18.1892  -24.0223 C   0  0  0  0  0  0  0  0  0  0  0  0
  -19.5465   15.1985  -28.3810 O   0  0  0  0  0  0  0  0  0  0  0  0
  1  2  2  0
  1  3  1  0
  2  4  1  0
  4  5  1  0
  2  6  1  0
  5  7  1  0
  7  8  1  0
  6  9  2  0
  8 10  1  0
  6 11  1  0
  7 11  1  0
  8 11  1  0
  9 12  1  0
 10 13  1  0
  3 14  2  0
  9 14  1  0
 10 15  1  0
M  END
>  <ID>  (1) 
conformer_0

$$$$
