
     RDKit          3D

 21 24  0  0  0  0  0  0  0  0999 V2000
  -23.6655   16.6677  -22.8522 C   0  0  0  0  0  0  0  0  0  0  0  0
  -23.9633   17.5667  -23.7561 C   0  0  0  0  0  0  0  0  0  0  0  0
  -23.0459   17.8618  -24.7790 C   0  0  0  0  0  0  0  0  0  0  0  0
  -21.7820   17.2703  -24.7093 C   0  0  0  0  0  0  0  0  0  0  0  0
  -25.3600   18.0409  -23.7723 C   0  0  0  0  0  0  0  0  0  0  0  0
  -23.3539   18.7313  -25.8363 O   0  0  0  0  0  0  0  0  0  0  0  0
  -22.5074   18.8168  -26.8584 C   0  0  0  0  0  0  0  0  0  0  0  0
  -25.6558   19.1482  -24.0719 O   0  0  0  0  0  0  0  0  0  0  0  0
  -22.8839   18.2856  -28.0037 C   0  0  0  0  0  0  0  0  0  0  0  0
  -21.2282   18.2937  -26.3428 C   0  0  0  0  0  0  0  0  0  0  0  0
  -21.9133   18.0494  -28.9975 C   0  0  0  0  0  0  0  0  0  0  0  0
  -26.3294   17.4624  -23.0686 O   0  0  0  0  0  0  0  0  0  0  0  0
  -20.6242   17.9136  -28.5579 C   0  0  0  0  0  0  0  0  0  0  0  0
  -21.6829   16.3792  -23.5537 C   0  0  0  0  0  0  0  0  0  0  0  0
  -20.4293   17.9348  -27.2680 C   0  0  0  0  0  0  0  0  0  0  0  0
  -19.5854   17.4011  -29.6022 C   0  0  0  0  0  0  0  0  0  0  0  0
  -19.0171   17.9588  -26.8774 O   0  0  0  0  0  0  0  0  0  0  0  0
  -18.3598   16.6235  -27.3304 C   0  0  0  0  0  0  0  0  0  0  0  0
  -22.5297   16.0958  -22.7330 C   0  0  0  0  0  0  0  0  0  0  0  0
  -20.7839   17.8150  -25.2371 O   0  0  0  0  0  0  0  0  0  0  0  0
  -18.4486   16.6453  -28.8979 C   0  0  0  0  0  0  0  0  0  0  0  0
  1  2  1  0
  2  3  2  0
  3  4  1  0
  2  5  1  0
  3  6  1  0
  6  7  1  0
  5  8  2  0
  7  9  1  0
  7 10  2  0
  9 11  2  0
  5 12  1  0
 11 13  1  0
  4 14  2  0
 10 15  1  0
 13 15  2  0
 13 16  1  0
 15 17  1  0
 17 18  1  0
  1 19  2  0
 14 19  1  0
  4 20  1  0
 10 20  1  0
 16 21  2  0
 18 21  1  0
M  END
>  <ID>  (1) 
conformer_0

$$$$
