
     RDKit          3D

  7  7  0  0  0  0  0  0  0  0999 V2000
  -18.4216   17.1921  -24.9537 C   0  0  0  0  0  0  0  0  0  0  0  0
  -17.6482   17.3332  -26.0552 C   0  0  0  0  0  0  0  0  0  0  0  0
  -18.1080   16.4237  -27.1758 C   0  0  0  0  0  0  0  0  0  0  0  0
  -19.8598   17.6569  -25.2100 C   0  0  0  0  0  0  0  0  0  0  0  0
  -19.5471   16.7059  -27.5044 C   0  0  0  0  0  0  0  0  0  0  0  0
  -20.3809   16.7051  -26.3020 C   0  0  0  0  0  0  0  0  0  0  0  0
  -19.9999   15.6852  -28.5842 O   0  0  0  0  0  0  0  0  0  0  0  0
  1  2  1  0
  2  3  1  0
  1  4  1  0
  3  5  1  0
  4  6  1  0
  5  6  1  0
  5  7  1  0
M  END
>  <ID>  (1) 
conformer_0

$$$$
