
     RDKit          3D

 17 19  0  0  0  0  0  0  0  0999 V2000
  -17.6943   16.9005  -26.4587 C   0  0  0  0  0  0  0  0  0  0  0  0
  -17.9829   16.4820  -27.5592 C   0  0  0  0  0  0  0  0  0  0  0  0
  -18.7002   17.1609  -25.4559 C   0  0  0  0  0  0  0  0  0  0  0  0
  -19.9407   17.2883  -25.6243 C   0  0  0  0  0  0  0  0  0  0  0  0
  -20.9515   17.5980  -24.7254 N   0  0  0  0  0  0  0  0  0  0  0  0
  -22.0217   18.0483  -25.1921 C   0  0  0  0  0  0  0  0  0  0  0  0
  -23.2906   17.7470  -24.4431 C   0  0  0  0  0  0  0  0  0  0  0  0
  -23.2784   17.0574  -23.2624 C   0  0  0  0  0  0  0  0  0  0  0  0
  -19.4335   16.3415  -28.0608 C   0  0  0  0  0  0  0  0  0  0  0  0
  -24.2260   18.3192  -24.9334 C   0  0  0  0  0  0  0  0  0  0  0  0
  -24.2675   18.7956  -26.2730 O   0  0  0  0  0  0  0  0  0  0  0  0
  -20.4399   16.7429  -27.1136 C   0  0  0  0  0  0  0  0  0  0  0  0
  -25.6216   18.4651  -24.3696 C   0  0  0  0  0  0  0  0  0  0  0  0
  -26.7145   19.0610  -24.8963 C   0  0  0  0  0  0  0  0  0  0  0  0
  -22.4348   18.6124  -26.3823 C   0  0  0  0  0  0  0  0  0  0  0  0
  -24.5429   17.0705  -22.5654 C   0  0  0  0  0  0  0  0  0  0  0  0
  -25.6319   17.7328  -23.1081 C   0  0  0  0  0  0  0  0  0  0  0  0
  1  2  2  0
  1  3  1  0
  3  4  2  0
  4  5  1  0
  5  6  1  0
  6  7  1  0
  7  8  1  0
  2  9  1  0
  7 10  2  0
 10 11  1  0
  4 12  1  0
  9 12  2  0
 10 13  1  0
 13 14  1  0
  6 15  2  0
 11 15  1  0
  8 16  2  0
 13 17  2  0
 16 17  1  0
M  END
>  <ID>  (1) 
conformer_0

$$$$
