
     RDKit          3D

  8  8  0  0  0  0  0  0  0  0999 V2000
  -17.8624   16.2655  -28.4779 C   0  0  0  0  0  0  0  0  0  0  0  0
  -18.1381   16.7116  -27.2894 C   0  0  0  0  0  0  0  0  0  0  0  0
  -19.0324   15.7770  -29.0703 C   0  0  0  0  0  0  0  0  0  0  0  0
  -19.2496   16.8208  -26.5935 C   0  0  0  0  0  0  0  0  0  0  0  0
  -18.9843   15.2423  -30.4283 O   0  0  0  0  0  0  0  0  0  0  0  0
  -20.3993   15.8734  -28.6377 C   0  0  0  0  0  0  0  0  0  0  0  0
  -20.4395   16.4350  -27.3126 C   0  0  0  0  0  0  0  0  0  0  0  0
  -19.5415   17.1686  -25.2175 C   0  0  0  0  0  0  0  0  0  0  0  0
  1  2  1  0
  1  3  2  0
  2  4  2  0
  3  5  1  0
  3  6  1  0
  4  7  1  0
  6  7  2  0
  4  8  1  0
M  END
>  <ID>  (1) 
conformer_0

$$$$
