
     RDKit          3D

 20 22  0  0  0  0  0  0  0  0999 V2000
  -23.6655   16.6677  -22.8522 C   0  0  0  0  0  0  0  0  0  0  0  0
  -24.7537   16.8578  -22.6614 C   0  0  0  0  0  0  0  0  0  0  0  0
  -23.0618   17.4359  -24.0316 C   0  0  0  0  0  0  0  0  0  0  0  0
  -21.6772   17.2132  -24.4635 N   0  0  0  0  0  0  0  0  0  0  0  0
  -23.9788   18.1254  -24.8079 C   0  0  0  0  0  0  0  0  0  0  0  0
  -23.3566   18.8467  -26.0008 O   0  0  0  0  0  0  0  0  0  0  0  0
  -21.0751   16.3814  -25.0307 C   0  0  0  0  0  0  0  0  0  0  0  0
  -20.2525   16.7337  -26.1999 C   0  0  0  0  0  0  0  0  0  0  0  0
  -25.2553   18.3339  -24.4522 C   0  0  0  0  0  0  0  0  0  0  0  0
  -23.2284   18.0897  -27.1337 C   0  0  0  0  0  0  0  0  0  0  0  0
  -19.2562   17.6297  -25.9748 C   0  0  0  0  0  0  0  0  0  0  0  0
  -21.9558   18.3131  -27.7602 C   0  0  0  0  0  0  0  0  0  0  0  0
  -25.7508   17.7161  -23.3480 C   0  0  0  0  0  0  0  0  0  0  0  0
  -24.1447   17.4328  -27.6236 O   0  0  0  0  0  0  0  0  0  0  0  0
  -20.7274   16.4741  -27.5761 C   0  0  0  0  0  0  0  0  0  0  0  0
  -18.9314   18.0253  -24.6421 O   0  0  0  0  0  0  0  0  0  0  0  0
  -21.3810   17.3122  -28.3610 C   0  0  0  0  0  0  0  0  0  0  0  0
  -19.5634   16.1169  -28.2582 C   0  0  0  0  0  0  0  0  0  0  0  0
  -17.9815   17.4009  -26.8434 C   0  0  0  0  0  0  0  0  0  0  0  0
  -18.2917   16.6329  -28.0336 C   0  0  0  0  0  0  0  0  0  0  0  0
  1  2  2  0
  1  3  1  0
  3  4  1  0
  3  5  2  0
  5  6  1  0
  4  7  1  0
  7  8  1  0
  5  9  1  0
  6 10  1  0
  8 11  2  0
 10 12  1  0
  2 13  1  0
  9 13  2  0
 10 14  2  0
  8 15  1  0
 11 16  1  0
 12 17  1  0
 15 17  1  0
 15 18  1  0
 11 19  1  0
 18 20  1  0
 19 20  1  0
M  END
>  <ID>  (1) 
conformer_0

$$$$
