
     RDKit          3D

 21 23  0  0  0  0  0  0  0  0999 V2000
  -17.6943   16.9005  -26.4587 C   0  0  0  0  0  0  0  0  0  0  0  0
  -17.9829   16.4820  -27.5592 C   0  0  0  0  0  0  0  0  0  0  0  0
  -18.7002   17.1609  -25.4559 C   0  0  0  0  0  0  0  0  0  0  0  0
  -19.9407   17.2883  -25.6243 C   0  0  0  0  0  0  0  0  0  0  0  0
  -20.9515   17.5980  -24.7254 N   0  0  0  0  0  0  0  0  0  0  0  0
  -22.0217   18.0483  -25.1921 C   0  0  0  0  0  0  0  0  0  0  0  0
  -23.2906   17.7470  -24.4431 C   0  0  0  0  0  0  0  0  0  0  0  0
  -24.3780   18.2720  -24.9484 C   0  0  0  0  0  0  0  0  0  0  0  0
  -19.4198   16.3878  -27.8914 C   0  0  0  0  0  0  0  0  0  0  0  0
  -23.3617   16.9979  -23.2617 C   0  0  0  0  0  0  0  0  0  0  0  0
  -25.5764   18.0571  -24.2178 C   0  0  0  0  0  0  0  0  0  0  0  0
  -22.0976   18.7191  -26.3131 C   0  0  0  0  0  0  0  0  0  0  0  0
  -21.0496   18.9555  -27.3206 O   0  0  0  0  0  0  0  0  0  0  0  0
  -25.6970   17.3785  -23.0796 C   0  0  0  0  0  0  0  0  0  0  0  0
  -24.4360   18.9556  -26.2118 C   0  0  0  0  0  0  0  0  0  0  0  0
  -23.3561   19.1468  -26.9217 C   0  0  0  0  0  0  0  0  0  0  0  0
  -19.8190   15.9546  -29.2377 C   0  0  0  0  0  0  0  0  0  0  0  0
  -20.4239   16.7865  -27.0651 C   0  0  0  0  0  0  0  0  0  0  0  0
  -18.9957   15.4559  -30.0623 O   0  0  0  0  0  0  0  0  0  0  0  0
  -21.1103   15.9567  -29.3774 O   0  0  0  0  0  0  0  0  0  0  0  0
  -24.4494   16.8495  -22.5676 C   0  0  0  0  0  0  0  0  0  0  0  0
  1  2  2  0
  1  3  1  0
  3  4  2  0
  4  5  1  0
  5  6  1  0
  6  7  1  0
  7  8  2  0
  2  9  1  0
  7 10  1  0
  8 11  1  0
  6 12  2  0
 12 13  1  0
 11 14  2  0
  8 15  1  0
 12 16  1  0
 15 16  2  0
  9 17  1  0
  4 18  1  0
  9 18  2  0
 17 19  2  0
 17 20  1  0
 10 21  2  0
 14 21  1  0
M  END
>  <ID>  (1) 
conformer_0

$$$$
