
     RDKit          3D

 19 20  0  0  0  0  0  0  0  0999 V2000
  -23.6655   16.6677  -22.8522 C   0  0  0  0  0  0  0  0  0  0  0  0
  -24.7537   16.8578  -22.6614 C   0  0  0  0  0  0  0  0  0  0  0  0
  -23.0618   17.4359  -24.0316 C   0  0  0  0  0  0  0  0  0  0  0  0
  -21.6772   17.2132  -24.4635 N   0  0  0  0  0  0  0  0  0  0  0  0
  -23.9788   18.1254  -24.8079 C   0  0  0  0  0  0  0  0  0  0  0  0
  -23.3566   18.8467  -26.0008 O   0  0  0  0  0  0  0  0  0  0  0  0
  -21.0751   16.3814  -25.0307 C   0  0  0  0  0  0  0  0  0  0  0  0
  -20.2525   16.7337  -26.1999 C   0  0  0  0  0  0  0  0  0  0  0  0
  -25.2553   18.3339  -24.4522 C   0  0  0  0  0  0  0  0  0  0  0  0
  -23.2284   18.0897  -27.1337 C   0  0  0  0  0  0  0  0  0  0  0  0
  -19.2562   17.6297  -25.9748 C   0  0  0  0  0  0  0  0  0  0  0  0
  -20.3775   16.0522  -27.4536 C   0  0  0  0  0  0  0  0  0  0  0  0
  -18.4057   17.9527  -27.1081 C   0  0  0  0  0  0  0  0  0  0  0  0
  -17.3284   18.9332  -26.8062 C   0  0  0  0  0  0  0  0  0  0  0  0
  -18.4300   17.2897  -28.2373 C   0  0  0  0  0  0  0  0  0  0  0  0
  -21.3540   15.1513  -27.7317 O   0  0  0  0  0  0  0  0  0  0  0  0
  -19.4058   16.3217  -28.4343 C   0  0  0  0  0  0  0  0  0  0  0  0
  -19.5374   15.5927  -29.6542 O   0  0  0  0  0  0  0  0  0  0  0  0
  -25.7028   17.6916  -23.3502 C   0  0  0  0  0  0  0  0  0  0  0  0
  1  2  2  0
  1  3  1  0
  3  4  1  0
  3  5  2  0
  5  6  1  0
  4  7  1  0
  7  8  1  0
  5  9  1  0
  6 10  1  0
  8 11  2  0
  8 12  1  0
 11 13  1  0
 13 14  1  0
 13 15  2  0
 12 16  1  0
 12 17  2  0
 15 17  1  0
 17 18  1  0
  2 19  1  0
  9 19  2  0
M  END
>  <ID>  (1) 
conformer_0

$$$$
