
     RDKit          3D

 20 22  0  0  0  0  0  0  0  0999 V2000
  -17.8624   16.2655  -28.4779 C   0  0  0  0  0  0  0  0  0  0  0  0
  -18.1381   16.7116  -27.2894 C   0  0  0  0  0  0  0  0  0  0  0  0
  -18.9321   15.5513  -29.0887 C   0  0  0  0  0  0  0  0  0  0  0  0
  -19.1677   16.8320  -26.6212 C   0  0  0  0  0  0  0  0  0  0  0  0
  -20.3212   16.1916  -27.2559 C   0  0  0  0  0  0  0  0  0  0  0  0
  -21.6344   16.3287  -26.5722 C   0  0  0  0  0  0  0  0  0  0  0  0
  -19.5158   17.2655  -25.2515 C   0  0  0  0  0  0  0  0  0  0  0  0
  -21.7222   16.8109  -25.3521 C   0  0  0  0  0  0  0  0  0  0  0  0
  -20.6228   17.3112  -24.6866 N   0  0  0  0  0  0  0  0  0  0  0  0
  -18.8054   15.1276  -30.4244 N   0  0  0  0  0  0  0  0  0  0  0  0
  -23.0266   16.9986  -24.5254 C   0  0  0  0  0  0  0  0  0  0  0  0
  -23.9411   17.9446  -25.0742 C   0  0  0  0  0  0  0  0  0  0  0  0
  -22.8847   16.8418  -23.3503 C   0  0  0  0  0  0  0  0  0  0  0  0
  -21.9251   16.0143  -22.7180 F   0  0  0  0  0  0  0  0  0  0  0  0
  -24.1848   16.8290  -22.6367 C   0  0  0  0  0  0  0  0  0  0  0  0
  -23.7922   18.5023  -26.4211 O   0  0  0  0  0  0  0  0  0  0  0  0
  -20.3045   15.6872  -28.5571 C   0  0  0  0  0  0  0  0  0  0  0  0
  -25.0783   18.1848  -24.4387 C   0  0  0  0  0  0  0  0  0  0  0  0
  -24.5458   18.0411  -27.4607 C   0  0  0  0  0  0  0  0  0  0  0  0
  -25.2031   17.6524  -23.1710 C   0  0  0  0  0  0  0  0  0  0  0  0
  1  2  1  0
  1  3  2  0
  2  4  2  0
  4  5  1  0
  5  6  1  0
  4  7  1  0
  6  8  2  0
  7  9  2  0
  8  9  1  0
  3 10  1  0
  8 11  1  0
 11 12  1  0
 11 13  2  0
 13 14  1  0
 13 15  1  0
 12 16  1  0
  3 17  1  0
  5 17  2  0
 12 18  2  0
 16 19  1  0
 15 20  2  0
 18 20  1  0
M  END
>  <ID>  (1) 
conformer_0

$$$$
