
     RDKit          3D

  6  6  0  0  0  0  0  0  0  0999 V2000
  -17.9427   16.4929  -27.4875 C   0  0  0  0  0  0  0  0  0  0  0  0
  -18.3554   16.8369  -26.4051 C   0  0  0  0  0  0  0  0  0  0  0  0
  -18.7931   15.6861  -28.3351 C   0  0  0  0  0  0  0  0  0  0  0  0
  -19.6408   16.6892  -25.9323 C   0  0  0  0  0  0  0  0  0  0  0  0
  -20.1777   15.6569  -27.9802 C   0  0  0  0  0  0  0  0  0  0  0  0
  -20.5853   16.2393  -26.7937 C   0  0  0  0  0  0  0  0  0  0  0  0
  1  2  2  0
  1  3  1  0
  2  4  1  0
  3  5  2  0
  4  6  2  0
  5  6  1  0
M  END
>  <ID>  (1) 
conformer_0

$$$$
