
     RDKit          3D

 20 24  0  0  0  0  0  0  0  0999 V2000
  -18.3354   15.6064  -28.8411 C   0  0  0  0  0  0  0  0  0  0  0  0
  -19.1300   16.0703  -29.7236 C   0  0  0  0  0  0  0  0  0  0  0  0
  -18.7551   15.4825  -27.5622 C   0  0  0  0  0  0  0  0  0  0  0  0
  -20.4677   16.4704  -29.4770 C   0  0  0  0  0  0  0  0  0  0  0  0
  -21.3350   16.9399  -30.5212 C   0  0  0  0  0  0  0  0  0  0  0  0
  -20.8352   16.4794  -28.2324 C   0  0  0  0  0  0  0  0  0  0  0  0
  -20.0294   15.9641  -27.2132 C   0  0  0  0  0  0  0  0  0  0  0  0
  -22.1960   17.0282  -28.0730 C   0  0  0  0  0  0  0  0  0  0  0  0
  -22.6291   17.3935  -26.6842 N   0  0  0  0  0  0  0  0  0  0  0  0
  -22.4948   17.5147  -30.2304 N   0  0  0  0  0  0  0  0  0  0  0  0
  -22.8307   17.7170  -28.9520 C   0  0  0  0  0  0  0  0  0  0  0  0
  -23.6925   18.0309  -26.5113 C   0  0  0  0  0  0  0  0  0  0  0  0
  -21.7241   17.4292  -25.5110 C   0  0  0  0  0  0  0  0  0  0  0  0
  -24.3812   18.2909  -25.3451 C   0  0  0  0  0  0  0  0  0  0  0  0
  -24.3152   18.1952  -27.9806 S   0  0  0  0  0  0  0  0  0  0  0  0
  -23.8569   17.9514  -24.1142 C   0  0  0  0  0  0  0  0  0  0  0  0
  -20.4698   16.8721  -25.4669 C   0  0  0  0  0  0  0  0  0  0  0  0
  -20.3453   15.6640  -26.0334 O   0  0  0  0  0  0  0  0  0  0  0  0
  -22.4561   17.5202  -24.2461 C   0  0  0  0  0  0  0  0  0  0  0  0
  -24.5596   18.0898  -22.9419 C   0  0  0  0  0  0  0  0  0  0  0  0
  1  2  2  0
  1  3  1  0
  2  4  1  0
  4  5  1  0
  4  6  2  0
  3  7  2  0
  6  7  1  0
  6  8  1  0
  8  9  1  0
  5 10  2  0
  8 11  2  0
 10 11  1  0
  9 12  1  0
  9 13  1  0
 12 14  1  0
 11 15  1  0
 12 15  2  0
 14 16  2  0
 13 17  1  0
  7 18  1  0
 17 18  1  0
 13 19  2  0
 16 19  1  0
 16 20  1  0
M  END
>  <ID>  (1) 
conformer_0

$$$$
