
     RDKit          3D

 19 21  0  0  0  0  0  0  0  0999 V2000
  -17.6943   16.9005  -26.4587 C   0  0  0  0  0  0  0  0  0  0  0  0
  -17.9829   16.4820  -27.5592 C   0  0  0  0  0  0  0  0  0  0  0  0
  -18.7002   17.1609  -25.4559 C   0  0  0  0  0  0  0  0  0  0  0  0
  -19.9407   17.2883  -25.6243 C   0  0  0  0  0  0  0  0  0  0  0  0
  -20.9515   17.5980  -24.7254 N   0  0  0  0  0  0  0  0  0  0  0  0
  -22.0217   18.0483  -25.1921 C   0  0  0  0  0  0  0  0  0  0  0  0
  -23.2906   17.7470  -24.4431 C   0  0  0  0  0  0  0  0  0  0  0  0
  -23.2784   17.0574  -23.2624 C   0  0  0  0  0  0  0  0  0  0  0  0
  -19.4335   16.3415  -28.0608 C   0  0  0  0  0  0  0  0  0  0  0  0
  -24.2260   18.3192  -24.9334 C   0  0  0  0  0  0  0  0  0  0  0  0
  -24.2675   18.7956  -26.2730 O   0  0  0  0  0  0  0  0  0  0  0  0
  -22.2555   16.4635  -22.6171 F   0  0  0  0  0  0  0  0  0  0  0  0
  -22.7811   18.6343  -26.5064 C   0  0  0  0  0  0  0  0  0  0  0  0
  -20.3776   16.7713  -27.0212 C   0  0  0  0  0  0  0  0  0  0  0  0
  -25.6204   18.2061  -24.2195 C   0  0  0  0  0  0  0  0  0  0  0  0
  -19.7525   15.9615  -29.1517 O   0  0  0  0  0  0  0  0  0  0  0  0
  -24.4727   17.0120  -22.6062 C   0  0  0  0  0  0  0  0  0  0  0  0
  -25.5842   17.5980  -23.0358 C   0  0  0  0  0  0  0  0  0  0  0  0
  -20.9729   16.4266  -29.6642 C   0  0  0  0  0  0  0  0  0  0  0  0
  1  2  2  0
  1  3  1  0
  3  4  2  0
  4  5  1  0
  5  6  1  0
  6  7  1  0
  7  8  1  0
  2  9  1  0
  7 10  2  0
 10 11  1  0
  8 12  1  0
  6 13  2  0
 11 13  1  0
  4 14  1  0
  9 14  2  0
 10 15  1  0
  9 16  1  0
  8 17  2  0
 15 18  2  0
 17 18  1  0
 16 19  1  0
M  END
>  <ID>  (1) 
conformer_0

$$$$
