
     RDKit          3D

 11 11  0  0  0  0  0  0  0  0999 V2000
  -18.3210   15.4752  -29.6356 C   0  0  0  0  0  0  0  0  0  0  0  0
  -18.2820   15.8607  -28.4009 C   0  0  0  0  0  0  0  0  0  0  0  0
  -19.2857   15.9251  -27.7009 C   0  0  0  0  0  0  0  0  0  0  0  0
  -19.2596   16.2719  -26.2229 C   0  0  0  0  0  0  0  0  0  0  0  0
  -19.4857   15.8351  -30.2703 C   0  0  0  0  0  0  0  0  0  0  0  0
  -20.6473   16.0539  -29.5891 C   0  0  0  0  0  0  0  0  0  0  0  0
  -20.5617   16.3361  -28.2629 C   0  0  0  0  0  0  0  0  0  0  0  0
  -22.0243   16.3213  -30.3038 C   0  0  0  0  0  0  0  0  0  0  0  0
  -22.8601   15.6019  -30.1854 O   0  0  0  0  0  0  0  0  0  0  0  0
  -18.1757   17.0941  -25.8125 C   0  0  0  0  0  0  0  0  0  0  0  0
  -22.2604   17.6020  -30.6879 N   0  0  0  0  0  0  0  0  0  0  0  0
  1  2  1  0
  2  3  2  0
  3  4  1  0
  1  5  2  0
  5  6  1  0
  3  7  1  0
  6  7  2  0
  6  8  1  0
  8  9  2  0
  4 10  1  0
  8 11  1  0
M  END
>  <ID>  (1) 
conformer_0

$$$$
