
     RDKit          3D

 18 20  0  0  0  0  0  0  0  0999 V2000
  -17.6943   16.9005  -26.4587 C   0  0  0  0  0  0  0  0  0  0  0  0
  -17.9829   16.4820  -27.5592 C   0  0  0  0  0  0  0  0  0  0  0  0
  -18.7002   17.1609  -25.4559 C   0  0  0  0  0  0  0  0  0  0  0  0
  -19.9407   17.2883  -25.6243 C   0  0  0  0  0  0  0  0  0  0  0  0
  -20.9515   17.5980  -24.7254 N   0  0  0  0  0  0  0  0  0  0  0  0
  -22.0217   18.0483  -25.1921 C   0  0  0  0  0  0  0  0  0  0  0  0
  -23.2906   17.7470  -24.4431 C   0  0  0  0  0  0  0  0  0  0  0  0
  -24.3780   18.2720  -24.9484 C   0  0  0  0  0  0  0  0  0  0  0  0
  -19.4198   16.3878  -27.8914 C   0  0  0  0  0  0  0  0  0  0  0  0
  -23.3617   16.9979  -23.2617 C   0  0  0  0  0  0  0  0  0  0  0  0
  -25.5764   18.0571  -24.2178 C   0  0  0  0  0  0  0  0  0  0  0  0
  -22.0976   18.7191  -26.3131 C   0  0  0  0  0  0  0  0  0  0  0  0
  -21.0496   18.9555  -27.3206 O   0  0  0  0  0  0  0  0  0  0  0  0
  -25.6970   17.3785  -23.0796 C   0  0  0  0  0  0  0  0  0  0  0  0
  -24.4469   18.9152  -26.1763 C   0  0  0  0  0  0  0  0  0  0  0  0
  -24.4720   16.7738  -22.5483 C   0  0  0  0  0  0  0  0  0  0  0  0
  -23.3610   19.1317  -26.9172 C   0  0  0  0  0  0  0  0  0  0  0  0
  -20.3683   16.8249  -27.0160 C   0  0  0  0  0  0  0  0  0  0  0  0
  1  2  2  0
  1  3  1  0
  3  4  2  0
  4  5  1  0
  5  6  1  0
  6  7  1  0
  7  8  2  0
  2  9  1  0
  7 10  1  0
  8 11  1  0
  6 12  2  0
 12 13  1  0
 11 14  2  0
  8 15  1  0
 10 16  2  0
 14 16  1  0
 12 17  1  0
 15 17  2  0
  4 18  1  0
  9 18  2  0
M  END
>  <ID>  (1) 
conformer_0

$$$$
