
     RDKit          3D

 18 20  0  0  0  0  0  0  0  0999 V2000
  -18.1165   15.7539  -29.7538 C   0  0  0  0  0  0  0  0  0  0  0  0
  -18.1876   16.0307  -28.4400 C   0  0  0  0  0  0  0  0  0  0  0  0
  -19.1084   15.8028  -27.5823 C   0  0  0  0  0  0  0  0  0  0  0  0
  -19.0911   16.2553  -26.1334 C   0  0  0  0  0  0  0  0  0  0  0  0
  -20.4262   15.6120  -28.0247 C   0  0  0  0  0  0  0  0  0  0  0  0
  -21.5550   15.7326  -27.2258 O   0  0  0  0  0  0  0  0  0  0  0  0
  -21.4522   16.8702  -26.3034 C   0  0  0  0  0  0  0  0  0  0  0  0
  -22.6105   17.3400  -25.7116 C   0  0  0  0  0  0  0  0  0  0  0  0
  -17.8385   16.9190  -25.7185 O   0  0  0  0  0  0  0  0  0  0  0  0
  -22.7108   17.3059  -24.2631 C   0  0  0  0  0  0  0  0  0  0  0  0
  -20.2819   16.9202  -25.5778 C   0  0  0  0  0  0  0  0  0  0  0  0
  -23.4222   17.9617  -26.4312 C   0  0  0  0  0  0  0  0  0  0  0  0
  -23.9440   17.8512  -23.7574 C   0  0  0  0  0  0  0  0  0  0  0  0
  -24.8691   18.4413  -24.5775 C   0  0  0  0  0  0  0  0  0  0  0  0
  -20.5262   15.4745  -29.4647 C   0  0  0  0  0  0  0  0  0  0  0  0
  -24.6638   18.5809  -26.0357 C   0  0  0  0  0  0  0  0  0  0  0  0
  -21.7734   15.2666  -30.0251 O   0  0  0  0  0  0  0  0  0  0  0  0
  -19.4280   15.5222  -30.2631 C   0  0  0  0  0  0  0  0  0  0  0  0
  1  2  2  0
  2  3  1  0
  3  4  1  0
  3  5  2  0
  5  6  1  0
  6  7  1  0
  7  8  1  0
  4  9  1  0
  8 10  1  0
  4 11  1  0
  7 11  1  0
  8 12  2  0
 10 13  2  0
 13 14  1  0
  5 15  1  0
 12 16  1  0
 14 16  2  0
 15 17  1  0
  1 18  1  0
 15 18  2  0
M  END
>  <ID>  (1) 
conformer_0

$$$$
