
     RDKit          3D

 14 14  0  0  0  0  0  0  0  0999 V2000
  -17.8160   16.8238  -26.3437 C   0  0  0  0  0  0  0  0  0  0  0  0
  -18.5274   17.3934  -25.3818 C   0  0  0  0  0  0  0  0  0  0  0  0
  -19.8970   17.4116  -25.4908 C   0  0  0  0  0  0  0  0  0  0  0  0
  -20.6995   17.9660  -24.4320 O   0  0  0  0  0  0  0  0  0  0  0  0
  -18.3784   16.2303  -27.4177 C   0  0  0  0  0  0  0  0  0  0  0  0
  -21.9514   17.2857  -24.2103 C   0  0  0  0  0  0  0  0  0  0  0  0
  -20.4510   16.7602  -26.4954 C   0  0  0  0  0  0  0  0  0  0  0  0
  -17.5740   15.5708  -28.4258 F   0  0  0  0  0  0  0  0  0  0  0  0
  -23.1546   18.0927  -24.5568 C   0  0  0  0  0  0  0  0  0  0  0  0
  -24.3424   17.6772  -23.9058 C   0  0  0  0  0  0  0  0  0  0  0  0
  -21.9905   16.7239  -26.6030 F   0  0  0  0  0  0  0  0  0  0  0  0
  -25.6861   18.1830  -24.2441 C   0  0  0  0  0  0  0  0  0  0  0  0
  -24.3632   16.6753  -22.8720 C   0  0  0  0  0  0  0  0  0  0  0  0
  -19.8575   16.1405  -27.5753 C   0  0  0  0  0  0  0  0  0  0  0  0
  1  2  2  0
  2  3  1  0
  3  4  1  0
  1  5  1  0
  4  6  1  0
  3  7  2  0
  5  8  1  0
  6  9  1  0
  9 10  2  3
  7 11  1  0
 10 12  1  0
 10 13  1  0
  5 14  2  0
  7 14  1  0
M  END
>  <ID>  (1) 
conformer_0

$$$$
