
     RDKit          3D

 19 21  0  0  0  0  0  0  0  0999 V2000
  -18.2180   15.6814  -28.9250 C   0  0  0  0  0  0  0  0  0  0  0  0
  -18.3674   16.1716  -27.6769 C   0  0  0  0  0  0  0  0  0  0  0  0
  -19.5540   16.3547  -27.1253 C   0  0  0  0  0  0  0  0  0  0  0  0
  -20.7041   16.1683  -27.9091 C   0  0  0  0  0  0  0  0  0  0  0  0
  -20.5653   15.9400  -29.2574 C   0  0  0  0  0  0  0  0  0  0  0  0
  -19.6576   16.6518  -25.5876 C   0  0  0  0  0  0  0  0  0  0  0  0
  -21.0700   17.1927  -25.2929 C   0  0  0  0  0  0  0  0  0  0  0  0
  -21.7120   16.5439  -24.5811 C   0  0  0  0  0  0  0  0  0  0  0  0
  -21.4528   18.4528  -25.7246 C   0  0  0  0  0  0  0  0  0  0  0  0
  -21.2741   15.2168  -23.9877 F   0  0  0  0  0  0  0  0  0  0  0  0
  -22.9859   16.9371  -24.0466 C   0  0  0  0  0  0  0  0  0  0  0  0
  -23.7724   16.2093  -23.0876 C   0  0  0  0  0  0  0  0  0  0  0  0
  -20.6677   19.2242  -26.6636 O   0  0  0  0  0  0  0  0  0  0  0  0
  -22.6970   18.8800  -25.4038 N   0  0  0  0  0  0  0  0  0  0  0  0
  -24.9841   16.6626  -22.7132 C   0  0  0  0  0  0  0  0  0  0  0  0
  -19.2969   15.6475  -29.7219 C   0  0  0  0  0  0  0  0  0  0  0  0
  -25.5268   17.8571  -23.4881 C   0  0  0  0  0  0  0  0  0  0  0  0
  -23.5320   18.0945  -24.6132 C   0  0  0  0  0  0  0  0  0  0  0  0
  -24.7949   18.5354  -24.3302 C   0  0  0  0  0  0  0  0  0  0  0  0
  1  2  2  0
  2  3  1  0
  3  4  2  0
  4  5  1  0
  3  6  1  0
  6  7  1  0
  7  8  2  0
  7  9  1  0
  8 10  1  0
  8 11  1  0
 11 12  1  0
  9 13  1  0
  9 14  2  0
 12 15  2  0
  1 16  1  0
  5 16  2  0
 15 17  1  0
 11 18  2  0
 14 18  1  0
 17 19  2  0
 18 19  1  0
M  END
>  <ID>  (1) 
conformer_0

$$$$
