
     RDKit          3D

 17 17  0  0  0  0  0  0  0  0999 V2000
  -17.9241   16.2358  -28.3113 C   0  0  0  0  0  0  0  0  0  0  0  0
  -18.2105   16.6868  -27.1313 C   0  0  0  0  0  0  0  0  0  0  0  0
  -19.0175   15.6534  -29.0520 C   0  0  0  0  0  0  0  0  0  0  0  0
  -19.4681   16.6329  -26.5007 C   0  0  0  0  0  0  0  0  0  0  0  0
  -20.5590   16.2183  -27.2843 C   0  0  0  0  0  0  0  0  0  0  0  0
  -18.8229   15.2732  -30.4138 C   0  0  0  0  0  0  0  0  0  0  0  0
  -21.8585   16.2773  -26.7110 O   0  0  0  0  0  0  0  0  0  0  0  0
  -19.8842   17.0155  -25.1855 O   0  0  0  0  0  0  0  0  0  0  0  0
  -20.4070   15.7476  -28.5926 C   0  0  0  0  0  0  0  0  0  0  0  0
  -19.8151   15.4764  -31.3243 N   0  0  0  0  0  0  0  0  0  0  0  0
  -17.8205   14.6826  -30.8178 O   0  0  0  0  0  0  0  0  0  0  0  0
  -22.3406   17.5812  -26.4294 C   0  0  0  0  0  0  0  0  0  0  0  0
  -19.1280   17.9712  -24.5564 C   0  0  0  0  0  0  0  0  0  0  0  0
  -22.9816   17.6790  -25.3002 C   0  0  0  0  0  0  0  0  0  0  0  0
  -22.3875   17.2414  -24.0669 O   0  0  0  0  0  0  0  0  0  0  0  0
  -23.9716   18.6262  -25.0109 O   0  0  0  0  0  0  0  0  0  0  0  0
  -23.1899   16.6999  -23.1193 C   0  0  0  0  0  0  0  0  0  0  0  0
  1  2  1  0
  1  3  2  0
  2  4  2  0
  4  5  1  0
  3  6  1  0
  5  7  1  0
  4  8  1  0
  3  9  1  0
  5  9  2  0
  6 10  1  0
  6 11  2  0
  7 12  1  0
  8 13  1  0
 12 14  1  0
 14 15  1  0
 14 16  2  0
 15 17  1  0
M  END
>  <ID>  (1) 
conformer_0

$$$$
