
     RDKit          3D

 19 20  0  0  0  0  0  0  0  0999 V2000
  -23.6655   16.6677  -22.8522 C   0  0  0  0  0  0  0  0  0  0  0  0
  -22.6521   16.9482  -23.6113 C   0  0  0  0  0  0  0  0  0  0  0  0
  -22.7020   17.7395  -24.6163 C   0  0  0  0  0  0  0  0  0  0  0  0
  -24.9331   17.2193  -23.1727 C   0  0  0  0  0  0  0  0  0  0  0  0
  -21.5167   17.9343  -25.5398 C   0  0  0  0  0  0  0  0  0  0  0  0
  -20.3660   17.9598  -25.1359 N   0  0  0  0  0  0  0  0  0  0  0  0
  -19.3039   17.0944  -25.6674 C   0  0  0  0  0  0  0  0  0  0  0  0
  -24.0090   18.1777  -25.0262 C   0  0  0  0  0  0  0  0  0  0  0  0
  -19.4619   16.4985  -26.6837 N   0  0  0  0  0  0  0  0  0  0  0  0
  -21.5640   17.1208  -26.8146 C   0  0  0  0  0  0  0  0  0  0  0  0
  -22.7960   17.2343  -27.6453 C   0  0  0  0  0  0  0  0  0  0  0  0
  -20.5692   16.4255  -27.3059 C   0  0  0  0  0  0  0  0  0  0  0  0
  -22.5665   17.2474  -29.0137 N   0  0  0  0  0  0  0  0  0  0  0  0
  -18.0382   17.3692  -24.9839 C   0  0  0  0  0  0  0  0  0  0  0  0
  -26.0752   16.9999  -22.2526 F   0  0  0  0  0  0  0  0  0  0  0  0
  -22.4774   18.4248  -29.6604 C   0  0  0  0  0  0  0  0  0  0  0  0
  -24.1481   19.0035  -26.2523 F   0  0  0  0  0  0  0  0  0  0  0  0
  -23.3109   16.4132  -29.8539 C   0  0  0  0  0  0  0  0  0  0  0  0
  -25.1502   18.0470  -24.2726 C   0  0  0  0  0  0  0  0  0  0  0  0
  1  2  1  0
  2  3  2  0
  1  4  2  0
  3  5  1  0
  5  6  1  0
  6  7  1  0
  3  8  1  0
  7  9  2  0
  5 10  1  0
 10 11  1  0
  9 12  1  0
 10 12  2  0
 11 13  1  0
  7 14  1  0
  4 15  1  0
 13 16  1  0
  8 17  1  0
 13 18  1  0
  4 19  1  0
  8 19  2  0
M  END
>  <ID>  (1) 
conformer_0

$$$$
