
     RDKit          3D

 17 19  0  0  0  0  0  0  0  0999 V2000
  -23.6655   16.6677  -22.8522 C   0  0  0  0  0  0  0  0  0  0  0  0
  -22.6521   16.9482  -23.6113 C   0  0  0  0  0  0  0  0  0  0  0  0
  -22.7020   17.7395  -24.6163 C   0  0  0  0  0  0  0  0  0  0  0  0
  -24.9331   17.2193  -23.1727 C   0  0  0  0  0  0  0  0  0  0  0  0
  -21.5167   17.9343  -25.5398 C   0  0  0  0  0  0  0  0  0  0  0  0
  -20.3660   17.9598  -25.1359 N   0  0  0  0  0  0  0  0  0  0  0  0
  -19.3039   17.0944  -25.6674 C   0  0  0  0  0  0  0  0  0  0  0  0
  -24.0090   18.1777  -25.0262 C   0  0  0  0  0  0  0  0  0  0  0  0
  -19.4619   16.4985  -26.6837 N   0  0  0  0  0  0  0  0  0  0  0  0
  -21.5640   17.1208  -26.8146 C   0  0  0  0  0  0  0  0  0  0  0  0
  -22.7960   17.2343  -27.6453 C   0  0  0  0  0  0  0  0  0  0  0  0
  -25.0146   18.0009  -24.2766 C   0  0  0  0  0  0  0  0  0  0  0  0
  -20.5703   16.4130  -27.3100 C   0  0  0  0  0  0  0  0  0  0  0  0
  -20.7053   15.6100  -28.4928 C   0  0  0  0  0  0  0  0  0  0  0  0
  -22.8519   16.7074  -28.8554 N   0  0  0  0  0  0  0  0  0  0  0  0
  -18.0270   17.2129  -24.8904 C   0  0  0  0  0  0  0  0  0  0  0  0
  -21.8623   15.9174  -29.2603 C   0  0  0  0  0  0  0  0  0  0  0  0
  1  2  1  0
  2  3  2  0
  1  4  2  0
  3  5  1  0
  5  6  1  0
  6  7  1  0
  3  8  1  0
  7  9  2  0
  5 10  1  0
 10 11  1  0
  4 12  1  0
  8 12  2  0
  9 13  1  0
 10 13  2  0
 13 14  1  0
 11 15  2  0
  7 16  1  0
 14 17  2  0
 15 17  1  0
M  END
>  <ID>  (1) 
conformer_0

$$$$
