
     RDKit          3D

 17 19  0  0  0  0  0  0  0  0999 V2000
  -17.6943   16.9005  -26.4587 C   0  0  0  0  0  0  0  0  0  0  0  0
  -17.9829   16.4820  -27.5592 C   0  0  0  0  0  0  0  0  0  0  0  0
  -18.7002   17.1609  -25.4559 C   0  0  0  0  0  0  0  0  0  0  0  0
  -19.9407   17.2883  -25.6243 C   0  0  0  0  0  0  0  0  0  0  0  0
  -20.9515   17.5980  -24.7254 N   0  0  0  0  0  0  0  0  0  0  0  0
  -22.0217   18.0483  -25.1921 C   0  0  0  0  0  0  0  0  0  0  0  0
  -23.2906   17.7470  -24.4431 C   0  0  0  0  0  0  0  0  0  0  0  0
  -23.2784   17.0574  -23.2624 C   0  0  0  0  0  0  0  0  0  0  0  0
  -19.4335   16.3415  -28.0608 C   0  0  0  0  0  0  0  0  0  0  0  0
  -24.4513   18.1925  -24.9124 C   0  0  0  0  0  0  0  0  0  0  0  0
  -20.4532   16.7395  -27.0393 C   0  0  0  0  0  0  0  0  0  0  0  0
  -24.4816   16.8107  -22.5592 C   0  0  0  0  0  0  0  0  0  0  0  0
  -25.6387   17.2907  -23.0223 C   0  0  0  0  0  0  0  0  0  0  0  0
  -24.5533   18.8655  -26.2141 O   0  0  0  0  0  0  0  0  0  0  0  0
  -22.2416   17.9760  -26.5408 N   0  0  0  0  0  0  0  0  0  0  0  0
  -25.6740   18.0067  -24.2177 C   0  0  0  0  0  0  0  0  0  0  0  0
  -21.5945   17.2701  -27.2563 C   0  0  0  0  0  0  0  0  0  0  0  0
  1  2  2  0
  1  3  1  0
  3  4  2  0
  4  5  1  0
  5  6  1  0
  6  7  1  0
  7  8  1  0
  2  9  1  0
  7 10  2  0
  4 11  1  0
  9 11  2  0
  8 12  2  0
 12 13  1  0
 10 14  1  0
  6 15  1  0
 10 16  1  0
 13 16  2  0
 11 17  1  0
 15 17  2  0
M  END
>  <ID>  (1) 
conformer_0

$$$$
