
     RDKit          3D

 18 20  0  0  0  0  0  0  0  0999 V2000
  -23.6655   16.6677  -22.8522 C   0  0  0  0  0  0  0  0  0  0  0  0
  -23.9633   17.5667  -23.7561 C   0  0  0  0  0  0  0  0  0  0  0  0
  -23.0459   17.8618  -24.7790 C   0  0  0  0  0  0  0  0  0  0  0  0
  -21.7820   17.2703  -24.7093 C   0  0  0  0  0  0  0  0  0  0  0  0
  -24.6172   16.3145  -21.8333 C   0  0  0  0  0  0  0  0  0  0  0  0
  -23.4657   18.6694  -25.8767 O   0  0  0  0  0  0  0  0  0  0  0  0
  -23.4920   18.1908  -27.1445 C   0  0  0  0  0  0  0  0  0  0  0  0
  -20.7701   17.6172  -25.7958 C   0  0  0  0  0  0  0  0  0  0  0  0
  -20.7889   16.6936  -26.8445 C   0  0  0  0  0  0  0  0  0  0  0  0
  -22.3853   16.1665  -22.6943 C   0  0  0  0  0  0  0  0  0  0  0  0
  -21.4794   16.4317  -23.7783 C   0  0  0  0  0  0  0  0  0  0  0  0
  -19.7483   16.7821  -27.8562 C   0  0  0  0  0  0  0  0  0  0  0  0
  -19.2627   15.6727  -28.3496 C   0  0  0  0  0  0  0  0  0  0  0  0
  -18.9836   18.0136  -27.9767 C   0  0  0  0  0  0  0  0  0  0  0  0
  -19.3335   19.2199  -27.3620 C   0  0  0  0  0  0  0  0  0  0  0  0
  -18.1615   16.0552  -29.2658 C   0  0  0  0  0  0  0  0  0  0  0  0
  -17.9910   17.6982  -28.9409 N   0  0  0  0  0  0  0  0  0  0  0  0
  -19.7443   18.6871  -25.7320 C   0  0  0  0  0  0  0  0  0  0  0  0
  1  2  1  0
  2  3  2  0
  3  4  1  0
  1  5  1  0
  3  6  1  0
  6  7  1  0
  4  8  1  0
  8  9  2  0
  1 10  2  0
  4 11  2  0
 10 11  1  0
  9 12  1  0
 12 13  2  0
 12 14  1  0
 14 15  1  0
 13 16  1  0
 14 17  2  0
 16 17  1  0
  8 18  1  0
 15 18  1  0
M  END
>  <ID>  (1) 
conformer_0

$$$$
