
     RDKit          3D

 21 24  0  0  0  0  0  0  0  0999 V2000
  -23.6655   16.6677  -22.8522 C   0  0  0  0  0  0  0  0  0  0  0  0
  -23.9633   17.5667  -23.7561 C   0  0  0  0  0  0  0  0  0  0  0  0
  -23.0459   17.8618  -24.7790 C   0  0  0  0  0  0  0  0  0  0  0  0
  -21.7820   17.2703  -24.7093 C   0  0  0  0  0  0  0  0  0  0  0  0
  -25.3600   18.0409  -23.7723 C   0  0  0  0  0  0  0  0  0  0  0  0
  -23.3539   18.7313  -25.8363 O   0  0  0  0  0  0  0  0  0  0  0  0
  -22.5074   18.8168  -26.8584 C   0  0  0  0  0  0  0  0  0  0  0  0
  -24.6036   16.2972  -21.8145 C   0  0  0  0  0  0  0  0  0  0  0  0
  -22.4456   16.3528  -22.9350 N   0  0  0  0  0  0  0  0  0  0  0  0
  -25.8840   18.9870  -24.8226 O   0  0  0  0  0  0  0  0  0  0  0  0
  -26.4086   18.1950  -25.8259 C   0  0  0  0  0  0  0  0  0  0  0  0
  -20.8566   17.7012  -25.8864 C   0  0  0  0  0  0  0  0  0  0  0  0
  -21.2983   18.2621  -26.8629 C   0  0  0  0  0  0  0  0  0  0  0  0
  -19.5424   17.1974  -25.6791 C   0  0  0  0  0  0  0  0  0  0  0  0
  -25.8410   16.8094  -21.8752 C   0  0  0  0  0  0  0  0  0  0  0  0
  -26.2089   17.6746  -22.8214 C   0  0  0  0  0  0  0  0  0  0  0  0
  -20.5891   18.1107  -27.9631 C   0  0  0  0  0  0  0  0  0  0  0  0
  -21.5760   16.6023  -23.8892 N   0  0  0  0  0  0  0  0  0  0  0  0
  -19.2017   17.6923  -27.9590 C   0  0  0  0  0  0  0  0  0  0  0  0
  -18.7356   17.1456  -26.8161 C   0  0  0  0  0  0  0  0  0  0  0  0
  -17.4373   16.6634  -26.6984 C   0  0  0  0  0  0  0  0  0  0  0  0
  1  2  1  0
  2  3  2  0
  3  4  1  0
  2  5  1  0
  3  6  1  0
  6  7  1  0
  1  8  1  0
  1  9  2  0
  5 10  1  0
 10 11  1  0
  4 12  1  0
  7 13  1  0
 12 13  1  0
 12 14  2  0
  8 15  2  0
  5 16  2  0
 15 16  1  0
 13 17  2  0
  4 18  2  0
  9 18  1  0
 17 19  1  0
 14 20  1  0
 19 20  2  0
 20 21  1  0
M  END
>  <ID>  (1) 
conformer_0

$$$$
