
     RDKit          3D

 15 16  0  0  0  0  0  0  0  0999 V2000
  -18.3210   15.4752  -29.6356 C   0  0  0  0  0  0  0  0  0  0  0  0
  -18.2820   15.8607  -28.4009 C   0  0  0  0  0  0  0  0  0  0  0  0
  -19.2857   15.9251  -27.7009 C   0  0  0  0  0  0  0  0  0  0  0  0
  -19.5428   15.5078  -30.3490 N   0  0  0  0  0  0  0  0  0  0  0  0
  -20.5458   15.9327  -28.2500 C   0  0  0  0  0  0  0  0  0  0  0  0
  -21.7308   16.2131  -27.4295 C   0  0  0  0  0  0  0  0  0  0  0  0
  -22.3963   17.3514  -27.7887 N   0  0  0  0  0  0  0  0  0  0  0  0
  -19.1130   16.2460  -26.1665 C   0  0  0  0  0  0  0  0  0  0  0  0
  -20.6811   15.7579  -29.5736 C   0  0  0  0  0  0  0  0  0  0  0  0
  -23.1723   18.0935  -26.9229 C   0  0  0  0  0  0  0  0  0  0  0  0
  -24.5010   18.1501  -27.0368 C   0  0  0  0  0  0  0  0  0  0  0  0
  -22.5206   18.5802  -25.6887 C   0  0  0  0  0  0  0  0  0  0  0  0
  -25.2727   18.5957  -26.0172 C   0  0  0  0  0  0  0  0  0  0  0  0
  -24.7041   18.8719  -24.7669 C   0  0  0  0  0  0  0  0  0  0  0  0
  -23.3472   18.8575  -24.6190 C   0  0  0  0  0  0  0  0  0  0  0  0
  1  2  1  0
  2  3  2  0
  1  4  2  0
  3  5  1  0
  5  6  1  0
  6  7  1  0
  3  8  1  0
  4  9  1  0
  5  9  2  0
  7 10  1  0
 10 11  2  0
 10 12  1  0
 11 13  1  0
 13 14  2  0
 12 15  2  0
 14 15  1  0
M  END
>  <ID>  (1) 
conformer_0

$$$$
