
     RDKit          3D

 19 21  0  0  0  0  0  0  0  0999 V2000
  -18.4216   17.1921  -24.9537 C   0  0  0  0  0  0  0  0  0  0  0  0
  -17.6482   17.3332  -26.0552 C   0  0  0  0  0  0  0  0  0  0  0  0
  -19.8324   17.2426  -25.3314 C   0  0  0  0  0  0  0  0  0  0  0  0
  -20.7796   17.4645  -24.5126 N   0  0  0  0  0  0  0  0  0  0  0  0
  -20.1493   17.0913  -26.6613 C   0  0  0  0  0  0  0  0  0  0  0  0
  -21.5150   17.1607  -26.9201 C   0  0  0  0  0  0  0  0  0  0  0  0
  -19.1502   16.7959  -27.6641 C   0  0  0  0  0  0  0  0  0  0  0  0
  -22.0236   17.4053  -25.3584 N   0  0  0  0  0  0  0  0  0  0  0  0
  -17.8800   16.5256  -27.1876 C   0  0  0  0  0  0  0  0  0  0  0  0
  -19.0357   17.8541  -28.6290 O   0  0  0  0  0  0  0  0  0  0  0  0
  -22.3405   17.3590  -27.9913 C   0  0  0  0  0  0  0  0  0  0  0  0
  -23.1707   17.7279  -24.8079 C   0  0  0  0  0  0  0  0  0  0  0  0
  -23.4942   17.1506  -23.6241 C   0  0  0  0  0  0  0  0  0  0  0  0
  -24.1459   18.3360  -25.5414 C   0  0  0  0  0  0  0  0  0  0  0  0
  -19.5627   15.5537  -28.5172 C   0  0  0  0  0  0  0  0  0  0  0  0
  -24.8497   17.4650  -23.2032 C   0  0  0  0  0  0  0  0  0  0  0  0
  -18.4225   15.0378  -29.1598 O   0  0  0  0  0  0  0  0  0  0  0  0
  -25.4378   18.5451  -25.1197 C   0  0  0  0  0  0  0  0  0  0  0  0
  -25.7910   18.1357  -23.9407 C   0  0  0  0  0  0  0  0  0  0  0  0
  1  2  1  0
  1  3  1  0
  3  4  2  0
  3  5  1  0
  5  6  2  0
  5  7  1  0
  4  8  1  0
  6  8  1  0
  2  9  1  0
  7  9  1  0
  7 10  1  0
  6 11  1  0
  8 12  1  0
 12 13  1  0
 12 14  2  0
  7 15  1  0
 13 16  2  0
 15 17  1  0
 14 18  1  0
 16 19  1  0
 18 19  2  0
M  END
>  <ID>  (1) 
conformer_0

$$$$
