
     RDKit          3D

 18 20  0  0  0  0  0  0  0  0999 V2000
  -17.6943   16.9005  -26.4587 C   0  0  0  0  0  0  0  0  0  0  0  0
  -17.9829   16.4820  -27.5592 C   0  0  0  0  0  0  0  0  0  0  0  0
  -18.7002   17.1609  -25.4559 C   0  0  0  0  0  0  0  0  0  0  0  0
  -19.9407   17.2883  -25.6243 C   0  0  0  0  0  0  0  0  0  0  0  0
  -20.9515   17.5980  -24.7254 N   0  0  0  0  0  0  0  0  0  0  0  0
  -22.0217   18.0483  -25.1921 C   0  0  0  0  0  0  0  0  0  0  0  0
  -23.2906   17.7470  -24.4431 C   0  0  0  0  0  0  0  0  0  0  0  0
  -17.0931   16.0801  -28.5639 F   0  0  0  0  0  0  0  0  0  0  0  0
  -22.2496   18.1741  -26.5846 C   0  0  0  0  0  0  0  0  0  0  0  0
  -19.4441   16.4369  -28.0875 C   0  0  0  0  0  0  0  0  0  0  0  0
  -23.2736   17.4158  -23.1297 O   0  0  0  0  0  0  0  0  0  0  0  0
  -24.5749   17.0532  -22.8068 C   0  0  0  0  0  0  0  0  0  0  0  0
  -24.4106   18.4225  -24.9372 C   0  0  0  0  0  0  0  0  0  0  0  0
  -23.4563   18.6453  -27.1115 C   0  0  0  0  0  0  0  0  0  0  0  0
  -20.9236   18.0891  -27.3403 C   0  0  0  0  0  0  0  0  0  0  0  0
  -21.1103   18.7097  -28.5974 O   0  0  0  0  0  0  0  0  0  0  0  0
  -20.2609   17.3360  -27.0542 C   0  0  0  0  0  0  0  0  0  0  0  0
  -24.5414   18.5485  -26.3207 C   0  0  0  0  0  0  0  0  0  0  0  0
  1  2  2  0
  1  3  1  0
  3  4  2  0
  4  5  1  0
  5  6  1  0
  6  7  1  0
  2  8  1  0
  6  9  2  0
  2 10  1  0
  7 11  1  0
 11 12  1  0
  7 13  2  0
  9 14  1  0
  9 15  1  0
 15 16  2  0
  4 17  1  0
 10 17  2  0
 15 17  1  0
 13 18  1  0
 14 18  2  0
M  END
>  <ID>  (1) 
conformer_0

$$$$
