
     RDKit          3D

 21 25  0  0  0  0  0  0  0  0999 V2000
  -17.6943   16.9005  -26.4587 C   0  0  0  0  0  0  0  0  0  0  0  0
  -17.9829   16.4820  -27.5592 C   0  0  0  0  0  0  0  0  0  0  0  0
  -18.7002   17.1609  -25.4559 C   0  0  0  0  0  0  0  0  0  0  0  0
  -19.9407   17.2883  -25.6243 C   0  0  0  0  0  0  0  0  0  0  0  0
  -20.9515   17.5980  -24.7254 N   0  0  0  0  0  0  0  0  0  0  0  0
  -22.0217   18.0483  -25.1921 C   0  0  0  0  0  0  0  0  0  0  0  0
  -23.2906   17.7470  -24.4431 C   0  0  0  0  0  0  0  0  0  0  0  0
  -23.2784   17.0574  -23.2624 C   0  0  0  0  0  0  0  0  0  0  0  0
  -19.4335   16.3415  -28.0608 C   0  0  0  0  0  0  0  0  0  0  0  0
  -24.2260   18.3192  -24.9334 C   0  0  0  0  0  0  0  0  0  0  0  0
  -24.2675   18.7956  -26.2730 O   0  0  0  0  0  0  0  0  0  0  0  0
  -20.3493   16.7332  -26.9991 C   0  0  0  0  0  0  0  0  0  0  0  0
  -19.8624   15.8336  -29.3763 C   0  0  0  0  0  0  0  0  0  0  0  0
  -21.0254   16.2754  -29.8281 C   0  0  0  0  0  0  0  0  0  0  0  0
  -21.8994   17.1784  -29.1229 C   0  0  0  0  0  0  0  0  0  0  0  0
  -22.5437   18.4130  -26.5725 C   0  0  0  0  0  0  0  0  0  0  0  0
  -22.1930   16.4901  -22.6333 F   0  0  0  0  0  0  0  0  0  0  0  0
  -24.4585   16.9824  -22.6179 C   0  0  0  0  0  0  0  0  0  0  0  0
  -25.6395   18.2991  -24.3068 C   0  0  0  0  0  0  0  0  0  0  0  0
  -21.6064   17.3732  -27.6677 C   0  0  0  0  0  0  0  0  0  0  0  0
  -25.6071   17.6468  -23.0806 C   0  0  0  0  0  0  0  0  0  0  0  0
  1  2  2  0
  1  3  1  0
  3  4  2  0
  4  5  1  0
  5  6  1  0
  6  7  1  0
  7  8  1  0
  2  9  1  0
  7 10  2  0
 10 11  1  0
  4 12  1  0
  9 12  2  0
  9 13  1  0
 13 14  2  0
 14 15  1  0
  6 16  2  0
 11 16  1  0
  8 17  1  0
  8 18  2  0
 10 19  1  0
 12 20  1  0
 15 20  2  0
 16 20  1  0
 18 21  1  0
 19 21  2  0
M  END
>  <ID>  (1) 
conformer_0

$$$$
