
     RDKit          3D

 17 20  0  0  0  0  0  0  0  0999 V2000
   11.8880    2.0208   32.7169 C   0  0  0  0  0  0  0  0  0  0  0  0
   14.9789    0.5169   29.7772 C   0  0  0  0  0  0  0  0  0  0  0  0
   10.7654    2.7114   33.4593 C   0  0  0  0  0  0  0  0  0  0  0  0
   14.7437   -0.5410   30.1045 N   0  0  0  0  0  0  0  0  0  0  0  0
   10.7562   -1.2447   33.3909 C   0  0  0  0  0  0  0  0  0  0  0  0
   11.0413   -3.5509   32.7191 P   0  0  0  0  0  0  0  0  0  0  0  0
   15.0051    2.1181   29.9966 S   0  0  0  0  0  0  0  0  0  0  0  0
   10.8946   -4.3819   32.0719 O   0  0  0  0  0  0  0  0  0  0  0  0
   10.9543   -2.3098   32.8319 O   0  0  0  0  0  0  0  0  0  0  0  0
   11.5585    4.1017   33.8744 C   0  0  0  0  0  0  0  0  0  0  0  0
   13.2990    2.8970   32.5794 C   0  0  0  0  0  0  0  0  0  0  0  0
   11.6315    5.1316   33.4517 O   0  0  0  0  0  0  0  0  0  0  0  0
   12.0619    0.5690   32.5157 C   0  0  0  0  0  0  0  0  0  0  0  0
   14.1198    1.1560   31.0577 C   0  0  0  0  0  0  0  0  0  0  0  0
   13.4983   -0.0972   31.3780 N   0  0  0  0  0  0  0  0  0  0  0  0
   10.8008    0.9278   33.4375 C   0  0  0  0  0  0  0  0  0  0  0  0
   12.4614   -3.5356   33.5057 O   0  0  0  0  0  0  0  0  0  0  0  0
  3  1  1  0
  4  2  1  0
  7  2  1  0
  8  6  1  0
  9  5  1  0
  9  6  1  0
 10  3  1  0
 11  1  1  0
 12 10  2  0
 13  1  1  0
 14  2  2  0
 14  7  1  0
 15  4  1  0
 15 13  1  0
 15 14  1  0
 16  1  1  0
 16  3  1  0
 16  5  1  0
 16 13  1  0
 17  6  1  0
M  END
>  <ID>  (1) 
conformer_0

$$$$
