
     RDKit          3D

 17 18  0  0  0  0  0  0  0  0999 V2000
   12.2052    3.1669   33.4627 C   0  0  0  0  0  0  0  0  0  0  0  0
   10.5642    2.4514   33.2721 C   0  0  0  0  0  0  0  0  0  0  0  0
   14.7211    0.8071   30.1390 C   0  0  0  0  0  0  0  0  0  0  0  0
   11.2301   -0.6616   32.9370 C   0  0  0  0  0  0  0  0  0  0  0  0
   11.0057   -3.5514   32.7456 P   0  0  0  0  0  0  0  0  0  0  0  0
   13.9898   -0.3265   30.8579 N   0  0  0  0  0  0  0  0  0  0  0  0
   10.9638   -4.3013   31.7305 O   0  0  0  0  0  0  0  0  0  0  0  0
   12.2914   -3.6738   33.5052 O   0  0  0  0  0  0  0  0  0  0  0  0
   11.8008    4.3748   34.0998 C   0  0  0  0  0  0  0  0  0  0  0  0
    9.8074   -3.6423   33.6683 O   0  0  0  0  0  0  0  0  0  0  0  0
   13.0140    3.1070   32.0025 C   0  0  0  0  0  0  0  0  0  0  0  0
   10.9800    5.2080   33.5949 O   0  0  0  0  0  0  0  0  0  0  0  0
   11.1669   -1.9774   32.6292 O   0  0  0  0  0  0  0  0  0  0  0  0
   13.5919    0.6825   31.5215 C   0  0  0  0  0  0  0  0  0  0  0  0
   13.5004    2.2784   32.1297 C   0  0  0  0  0  0  0  0  0  0  0  0
   11.9682    1.3617   32.9759 C   0  0  0  0  0  0  0  0  0  0  0  0
   10.6370    0.7313   33.7566 C   0  0  0  0  0  0  0  0  0  0  0  0
  2  1  1  0
  6  3  1  0
  7  5  1  0
  8  4  1  0
  8  5  1  0
  9  1  1  0
 10  5  1  0
 11  1  1  0
 12  9  2  0
 13  4  1  0
 14  6  1  0
 15 11  1  0
 15 14  1  0
 16  1  1  0
 16  2  1  0
 17  2  1  0
 17  4  1  0
 17 16  1  0
M  END
>  <ID>  (1) 
conformer_0

$$$$
