
     RDKit          3D

 17 17  0  0  0  0  0  0  0  0999 V2000
   12.1266    2.9010   32.8471 C   0  0  0  0  0  0  0  0  0  0  0  0
   13.2633    2.9765   32.2932 C   0  0  0  0  0  0  0  0  0  0  0  0
   14.0859    1.5748   31.1447 C   0  0  0  0  0  0  0  0  0  0  0  0
   10.9564   -1.2675   32.9582 C   0  0  1  0  0  0  0  0  0  0  0  0
   13.5450    0.0464   31.3326 N   0  0  0  0  0  0  0  0  0  0  0  0
   11.2895   -3.6672   32.5686 P   0  0  0  0  0  0  0  0  0  0  0  0
   10.7377    2.3883   33.2295 C   0  0  0  0  0  0  0  0  0  0  0  0
   11.5123    5.6001   33.1373 O   0  0  0  0  0  0  0  0  0  0  0  0
   15.3848    1.4168   29.7465 S   0  0  0  0  0  0  0  0  0  0  0  0
   11.8070    4.3917   33.5981 C   0  0  0  0  0  0  0  0  0  0  0  0
   11.1920   -4.3402   31.6061 O   0  0  0  0  0  0  0  0  0  0  0  0
   12.7405   -3.6806   33.4691 O   0  0  0  0  0  0  0  0  0  0  0  0
   10.2438   -4.2988   33.5426 O   0  0  0  0  0  0  0  0  0  0  0  0
   10.8486    0.7856   33.3960 C   0  0  2  0  0  0  0  0  0  0  0  0
   14.6402    0.4146   30.2187 C   0  0  0  0  0  0  0  0  0  0  0  0
   11.9010    0.6881   32.5028 C   0  0  0  0  0  0  0  0  0  0  0  0
   11.3953   -2.4450   32.4360 O   0  0  0  0  0  0  0  0  0  0  0  0
  2  1  2  3
  3  2  1  0
  5  3  2  0
  7  1  1  0
 10  1  1  0
 10  8  1  0
 11  6  1  0
  4 12  1  1
 13  6  1  0
 14  4  1  0
 14  7  1  0
 15  3  1  0
 15  5  1  0
 15  9  2  0
 14 16  1  6
 17  4  1  0
 17  6  1  0
M  END
>  <ID>  (1) 
conformer_0

$$$$
