
     RDKit          3D

 18 19  0  0  0  0  0  0  0  0999 V2000
   10.6954    3.7650   32.8100 C   0  0  0  0  0  0  0  0  0  0  0  0
   13.8448    0.9901   31.3945 C   0  0  0  0  0  0  0  0  0  0  0  0
   12.5708    3.2161   32.8751 C   0  0  0  0  0  0  0  0  0  0  0  0
   11.3137   -0.8215   32.6394 C   0  0  0  0  0  0  0  0  0  0  0  0
   13.1019    2.1035   32.6505 C   0  0  0  0  0  0  0  0  0  0  0  0
   11.2812   -3.5989   32.7343 P   0  0  0  0  0  0  0  0  0  0  0  0
   12.9229   -3.7346   33.3914 O   0  0  0  0  0  0  0  0  0  0  0  0
   15.1307    1.7431   29.9900 S   0  0  0  0  0  0  0  0  0  0  0  0
   10.9692   -4.2720   31.6670 O   0  0  0  0  0  0  0  0  0  0  0  0
   11.4322    4.7174   33.5900 C   0  0  0  0  0  0  0  0  0  0  0  0
   11.5028    5.8104   33.4660 O   0  0  0  0  0  0  0  0  0  0  0  0
   14.0558   -0.8460   30.6004 N   0  0  0  0  0  0  0  0  0  0  0  0
   11.2574    2.1615   33.2907 C   0  0  0  0  0  0  0  0  0  0  0  0
   14.6149    0.2875   30.4119 C   0  0  0  0  0  0  0  0  0  0  0  0
   10.4657   -4.2497   33.7335 O   0  0  0  0  0  0  0  0  0  0  0  0
   11.1890   -2.3991   32.8329 O   0  0  0  0  0  0  0  0  0  0  0  0
   13.1751    0.0752   31.4627 N   0  0  0  0  0  0  0  0  0  0  0  0
   11.1201    0.5043   33.3096 C   0  0  0  0  0  0  0  0  0  0  0  0
  3  1  1  0
  5  2  1  0
  5  3  1  0
  7  4  1  0
  9  6  1  0
 10  1  1  0
 11 10  2  0
 13  1  1  0
 13  3  1  0
 14  2  1  0
 14  8  2  0
 14 12  1  0
 15  6  1  0
 16  4  1  0
 16  6  1  0
 17  2  2  0
 17 12  1  0
 18  4  1  0
 18 13  1  0
M  END
>  <ID>  (1) 
conformer_0

$$$$
