
     RDKit          3D

 19 21  0  0  0  0  0  0  0  0999 V2000
   10.8699    2.9947   33.3843 C   0  0  0  0  0  0  0  0  0  0  0  0
   11.8026    1.8774   32.6812 C   0  0  0  0  0  0  0  0  0  0  0  0
   13.6513    0.6264   31.3570 C   0  0  0  0  0  0  0  0  0  0  0  0
   10.8940   -1.4225   33.2495 C   0  0  0  0  0  0  0  0  0  0  0  0
   10.9633   -4.1186   31.7209 O   0  0  0  0  0  0  0  0  0  0  0  0
   13.8839    2.6383   32.4333 C   0  0  0  0  0  0  0  0  0  0  0  0
   10.9811   -3.6501   32.9281 P   0  0  0  0  0  0  0  0  0  0  0  0
   12.5747   -3.5795   33.5419 O   0  0  0  0  0  0  0  0  0  0  0  0
   10.1412   -4.3397   34.0044 O   0  0  0  0  0  0  0  0  0  0  0  0
   11.3525    4.1929   33.9513 C   0  0  0  0  0  0  0  0  0  0  0  0
   13.8138   -0.2051   30.9808 N   0  0  0  0  0  0  0  0  0  0  0  0
   14.9664    0.2890   29.6391 C   0  0  0  0  0  0  0  0  0  0  0  0
   11.2811    5.2330   34.3699 N   0  0  0  0  0  0  0  0  0  0  0  0
   15.5175    1.7370   29.7738 S   0  0  0  0  0  0  0  0  0  0  0  0
   11.0201    0.8836   33.5763 C   0  0  0  0  0  0  0  0  0  0  0  0
   11.7611    0.0141   32.5033 C   0  0  0  0  0  0  0  0  0  0  0  0
   10.8676   -2.4382   33.0795 O   0  0  0  0  0  0  0  0  0  0  0  0
   14.6779    1.9007   30.6285 C   0  0  0  0  0  0  0  0  0  0  0  0
   12.8601    3.0154   33.4879 C   0  0  0  0  0  0  0  0  0  0  0  0
  2  1  1  0
  7  5  1  0
  8  4  1  0
  9  7  1  0
 10  1  2  0
 11  3  2  0
 12 11  1  0
 13 10  1  0
 14 12  1  0
 15  2  1  0
 16  2  1  0
 16  4  1  0
 16 15  1  0
 17  4  1  0
 17  7  1  0
 18  3  1  0
 18  6  1  0
 18 14  1  0
 19  2  1  0
 19  6  1  0
 19 10  1  0
M  END
>  <ID>  (1) 
conformer_0

$$$$
