
     RDKit          3D

 18 17  0  0  0  0  0  0  0  0999 V2000
   10.9763    0.8921   33.3843 C   0  0  0  0  0  0  0  0  0  0  0  0
   10.9289    2.3662   33.3956 C   0  0  2  0  0  0  0  0  0  0  0  0
   11.0785   -1.5417   33.2993 C   0  0  1  0  0  0  0  0  0  0  0  0
   10.8497   -4.2134   31.5705 O   0  0  0  0  0  0  0  0  0  0  0  0
   11.1146   -3.7479   32.6675 P   0  0  0  0  0  0  0  0  0  0  0  0
   11.0582    5.4708   33.2630 O   0  0  0  0  0  0  0  0  0  0  0  0
   12.2711    2.4803   32.7000 C   0  0  0  0  0  0  0  0  0  0  0  0
   11.5297    4.2637   33.8765 C   0  0  0  0  0  0  0  0  0  0  0  0
   12.5059   -3.9739   33.0900 O   0  0  0  0  0  0  0  0  0  0  0  0
   13.6845    0.0117   31.3328 N   0  0  0  0  0  0  0  0  0  0  0  0
   10.0482   -4.2475   33.6895 O   0  0  0  0  0  0  0  0  0  0  0  0
   15.1201    1.4134   29.8401 S   0  0  0  0  0  0  0  0  0  0  0  0
   14.1674    0.5704   30.7358 C   0  0  0  0  0  0  0  0  0  0  0  0
   11.7786    0.1956   32.5387 C   0  0  2  0  0  0  0  0  0  0  0  0
   12.1565    4.8056   34.5174 N   0  0  0  0  0  0  0  0  0  0  0  0
   11.2390   -2.1333   32.6648 O   0  0  0  0  0  0  0  0  0  0  0  0
   13.5102    3.5739   32.3953 C   0  0  0  0  0  0  0  0  0  0  0  0
   13.4545    3.2164   32.3730 C   0  0  0  0  0  0  0  0  0  0  0  0
  2  1  1  1
  5  4  1  0
  7  2  1  0
  8  2  1  0
  8  6  2  0
  9  3  1  0
  9  5  1  0
 11  5  1  0
 13 10  2  0
 13 12  2  0
 14  1  1  1
 14  3  1  0
 14 10  1  0
 15  8  1  0
  3 16  1  6
 18  7  1  0
 18 17  2  3
M  END
>  <ID>  (1) 
conformer_0

$$$$
