
     RDKit          3D

 15 15  0  0  0  0  0  0  0  0999 V2000
   12.4006    3.0016   32.0214 C   0  0  0  0  0  0  0  0  0  0  0  0
   10.8779    2.4489   33.4802 C   0  0  2  0  0  0  0  0  0  0  0  0
   13.9238    0.8038   31.1784 C   0  0  0  0  0  0  0  0  0  0  0  0
   11.0606   -0.7489   33.0834 C   0  0  0  0  0  0  0  0  0  0  0  0
   11.6297    4.0613   33.7149 C   0  0  0  0  0  0  0  0  0  0  0  0
   12.0655   -3.1320   33.4947 O   0  0  0  0  0  0  0  0  0  0  0  0
   10.8367    0.8764   33.4185 C   0  0  0  0  0  0  0  0  0  0  0  0
   10.9049   -3.4488   32.9844 P   0  0  0  0  0  0  0  0  0  0  0  0
   11.0479   -4.0986   31.7891 O   0  0  0  0  0  0  0  0  0  0  0  0
   14.5463   -0.6005   30.4189 N   0  0  0  0  0  0  0  0  0  0  0  0
    9.8676   -3.7966   33.7529 O   0  0  0  0  0  0  0  0  0  0  0  0
   12.1989    4.6275   34.6909 O   0  0  0  0  0  0  0  0  0  0  0  0
   12.4602    1.8043   32.5066 C   0  0  0  0  0  0  0  0  0  0  0  0
   14.8454    0.6998   30.0945 C   0  0  0  0  0  0  0  0  0  0  0  0
   15.2131    1.7670   29.8702 S   0  0  0  0  0  0  0  0  0  0  0  0
  2  5  1  1
  6  4  1  0
  7  2  1  0
  7  4  1  0
  8  6  1  0
  9  8  1  0
 10  3  2  0
 11  8  1  0
 12  5  1  0
 13  1  2  3
 13  2  1  0
 13  3  1  0
 14  3  1  0
 14 10  1  0
 15 14  2  0
M  END
>  <ID>  (1) 
conformer_0

$$$$
