
     RDKit          3D

 15 16  0  0  0  0  0  0  0  0999 V2000
   12.3928    2.3223   32.6666 C   0  0  0  0  0  0  0  0  0  0  0  0
   13.2706    3.0289   32.1102 C   0  0  0  0  0  0  0  0  0  0  0  0
   13.9403    1.5735   31.1413 C   0  0  0  0  0  0  0  0  0  0  0  0
   11.5368   -1.0304   32.8964 C   0  0  0  0  0  0  0  0  0  0  0  0
   13.6569   -0.2265   30.9892 N   0  0  0  0  0  0  0  0  0  0  0  0
   11.2347   -3.6210   32.8037 P   0  0  0  0  0  0  0  0  0  0  0  0
   10.9153    2.4849   33.0941 C   0  0  0  0  0  0  0  0  0  0  0  0
   15.5562    1.7842   29.9545 S   0  0  0  0  0  0  0  0  0  0  0  0
   11.2384   -4.1902   31.6789 O   0  0  0  0  0  0  0  0  0  0  0  0
   12.4732   -3.5672   33.3624 O   0  0  0  0  0  0  0  0  0  0  0  0
   11.9023    4.2468   33.4885 C   0  0  0  0  0  0  0  0  0  0  0  0
   10.9849    0.7890   33.1005 C   0  0  0  0  0  0  0  0  0  0  0  0
   10.1904   -4.2031   33.5323 O   0  0  0  0  0  0  0  0  0  0  0  0
   14.6829    0.6182   30.1325 C   0  0  0  0  0  0  0  0  0  0  0  0
   12.2634    4.9429   34.2410 O   0  0  0  0  0  0  0  0  0  0  0  0
  2  1  1  0
  3  2  1  0
  5  3  1  0
  7  1  1  0
  8  3  1  0
  9  6  1  0
 10  4  1  0
 10  6  1  0
 11  7  1  0
 12  4  3  0
 12  7  1  0
 13  6  1  0
 14  3  1  0
 14  5  1  0
 14  8  1  0
 15 11  1  0
M  END
>  <ID>  (1) 
conformer_0

$$$$
