
     RDKit          3D

 16 16  0  0  0  0  0  0  0  0999 V2000
   13.4469    2.8272   32.3678 C   0  0  0  0  0  0  0  0  0  0  0  0
   12.4704    3.6028   32.3909 C   0  0  0  0  0  0  0  0  0  0  0  0
   14.6833    0.8459   30.3111 C   0  0  0  0  0  0  0  0  0  0  0  0
   11.2464   -1.0023   32.7276 C   0  0  0  0  0  0  0  0  0  0  0  0
   11.0290    0.5092   33.4803 C   0  0  0  0  0  0  0  0  0  0  0  0
   11.1406   -3.7058   32.6590 P   0  0  0  0  0  0  0  0  0  0  0  0
   13.9018   -0.2131   30.9853 N   0  0  0  0  0  0  0  0  0  0  0  0
   11.0505    5.6547   32.6639 O   0  0  0  0  0  0  0  0  0  0  0  0
   10.9413   -4.2482   31.5416 O   0  0  0  0  0  0  0  0  0  0  0  0
   11.7630    4.7205   33.1970 C   0  0  0  0  0  0  0  0  0  0  0  0
   12.8323   -3.7185   33.1539 O   0  0  0  0  0  0  0  0  0  0  0  0
   11.2168    2.6601   33.6677 C   0  0  0  0  0  0  0  0  0  0  0  0
   10.4746   -4.3723   33.6461 O   0  0  0  0  0  0  0  0  0  0  0  0
   13.5072    0.8216   31.5255 C   0  0  0  0  0  0  0  0  0  0  0  0
   12.0554    1.4757   32.6972 C   0  0  0  0  0  0  0  0  0  0  0  0
   11.0902   -2.5733   32.8195 O   0  0  0  0  0  0  0  0  0  0  0  0
  2  1  1  0
  5  4  1  0
  7  3  1  0
  9  6  1  0
 10  2  1  0
 10  8  1  0
 11  4  1  0
 13  6  1  0
 14  3  1  0
 14  7  2  0
 15  1  1  0
 15  5  1  0
 15 12  1  0
 15 14  1  0
 16  4  1  0
 16  6  1  0
M  END
>  <ID>  (1) 
conformer_0

$$$$
