
     RDKit          3D

 15 14  0  0  0  0  0  0  0  0999 V2000
   11.1817    2.6441   33.9390 C   0  0  2  0  0  0  0  0  0  0  0  0
   13.8714    1.2427   31.3773 C   0  0  0  0  0  0  0  0  0  0  0  0
   13.3006    2.9093   33.0424 C   0  0  0  0  0  0  0  0  0  0  0  0
   11.2307   -0.5508   32.6467 C   0  0  0  0  0  0  0  0  0  0  0  0
   11.1194   -3.5256   32.7348 P   0  0  0  0  0  0  0  0  0  0  0  0
   14.3041    0.2163   30.4972 N   0  0  0  0  0  0  0  0  0  0  0  0
   10.9140   -4.3054   31.7813 O   0  0  0  0  0  0  0  0  0  0  0  0
   12.2441   -3.1903   33.2631 O   0  0  0  0  0  0  0  0  0  0  0  0
   10.6755    1.0119   33.5676 C   0  0  0  0  0  0  0  0  0  0  0  0
   11.6914    4.0779   33.8225 C   0  0  1  0  0  0  0  0  0  0  0  0
   10.8139    4.9561   33.2928 O   0  0  0  0  0  0  0  0  0  0  0  0
   12.0832    5.4348   34.5254 N   0  0  0  0  0  0  0  0  0  0  0  0
   14.7285    0.6464   30.0711 C   0  0  0  0  0  0  0  0  0  0  0  0
   10.0323   -3.8640   33.6825 O   0  0  0  0  0  0  0  0  0  0  0  0
   12.4271    1.9161   32.5374 C   0  0  2  0  0  0  0  0  0  0  0  0
  6  2  1  0
  7  5  1  0
  8  4  1  0
  8  5  1  0
  1  9  1  6
  9  4  1  0
 10  1  1  0
 11 10  1  0
 10 12  1  1
 13  6  2  3
 14  5  1  0
 15  1  1  0
 15  2  1  0
 15  3  1  6
M  END
>  <ID>  (1) 
conformer_0

$$$$
