
     RDKit          3D

 17 18  0  0  0  0  0  0  0  0999 V2000
   12.2983    3.2298   32.2753 C   0  0  0  0  0  0  0  0  0  0  0  0
   14.9656    0.3211   29.7775 C   0  0  0  0  0  0  0  0  0  0  0  0
   13.4822    2.6589   31.9854 C   0  0  0  0  0  0  0  0  0  0  0  0
   10.9983   -1.7148   33.3593 C   0  0  0  0  0  0  0  0  0  0  0  0
   11.6449    1.8586   33.1550 C   0  0  0  0  0  0  0  0  0  0  0  0
   10.9525   -3.8846   32.8534 P   0  0  0  0  0  0  0  0  0  0  0  0
   10.8009   -4.6549   31.9456 O   0  0  0  0  0  0  0  0  0  0  0  0
   11.9046    5.6066   32.6491 O   0  0  0  0  0  0  0  0  0  0  0  0
   11.9525   -3.4422   33.1494 O   0  0  0  0  0  0  0  0  0  0  0  0
   14.1618   -0.0561   30.5713 N   0  0  0  0  0  0  0  0  0  0  0  0
   11.6607    4.5260   33.5301 C   0  0  0  0  0  0  0  0  0  0  0  0
   13.6371    1.0311   31.3050 C   0  0  0  0  0  0  0  0  0  0  0  0
    9.8538   -4.0535   33.8586 O   0  0  0  0  0  0  0  0  0  0  0  0
   10.9815    0.3888   33.2638 C   0  0  0  0  0  0  0  0  0  0  0  0
   10.9186    2.9313   33.7809 C   0  0  0  0  0  0  0  0  0  0  0  0
   14.7662    2.1155   30.3823 C   0  0  0  0  0  0  0  0  0  0  0  0
   11.6157   -0.2436   32.4383 C   0  0  0  0  0  0  0  0  0  0  0  0
  3  1  1  0
  5  1  1  0
  7  6  1  0
  9  4  1  0
  9  6  1  0
 10  2  2  0
 11  1  1  0
 11  8  1  0
 12  3  1  0
 12 10  1  0
 13  6  1  0
 14  5  1  0
 15  5  1  0
 15 11  1  0
 16  2  1  0
 16 12  2  0
 17  4  1  0
 17 14  1  0
M  END
>  <ID>  (1) 
conformer_0

$$$$
