
     RDKit          3D

 15 16  0  0  0  0  0  0  0  0999 V2000
   12.9957    2.8537   32.1755 C   0  0  0  0  0  0  0  0  0  0  0  0
   13.7380    0.7282   31.3248 C   0  0  0  0  0  0  0  0  0  0  0  0
   11.5195    3.0530   33.0311 C   0  0  0  0  0  0  0  0  0  0  0  0
   11.2048   -0.8106   32.9150 C   0  0  0  0  0  0  0  0  0  0  0  0
   11.0298    5.4687   33.2016 O   0  0  0  0  0  0  0  0  0  0  0  0
   11.1833   -3.6480   32.7230 P   0  0  0  0  0  0  0  0  0  0  0  0
   14.1270   -0.5213   30.7871 N   0  0  0  0  0  0  0  0  0  0  0  0
   11.9541    1.6000   32.7768 C   0  0  0  0  0  0  0  0  0  0  0  0
   11.1442   -4.3452   31.7009 O   0  0  0  0  0  0  0  0  0  0  0  0
   12.1760   -3.2363   33.3039 O   0  0  0  0  0  0  0  0  0  0  0  0
   11.8251    4.8269   33.7727 C   0  0  0  0  0  0  0  0  0  0  0  0
   14.7097    0.8855   30.2028 C   0  0  0  0  0  0  0  0  0  0  0  0
   10.0412   -3.9049   33.5041 O   0  0  0  0  0  0  0  0  0  0  0  0
   10.8302    0.6064   33.4289 C   0  0  0  0  0  0  0  0  0  0  0  0
   15.1232    1.5639   30.3563 O   0  0  0  0  0  0  0  0  0  0  0  0
  2  1  1  0
  3  1  1  0
  7  2  1  0
  8  1  1  0
  8  3  1  0
  9  6  1  0
 10  4  1  0
 10  6  1  0
 11  3  1  0
 11  5  1  0
 12  2  1  0
 12  7  1  0
 13  6  1  0
 14  4  1  0
 14  8  1  0
 15 12  2  0
M  END
>  <ID>  (1) 
conformer_0

$$$$
