
     RDKit          3D

 17 17  0  0  0  0  0  0  0  0999 V2000
   12.3167    2.1454   32.8790 C   0  0  2  0  0  0  0  0  0  0  0  0
   13.0162    2.8808   32.2620 C   0  0  0  0  0  0  0  0  0  0  0  0
   13.7404    0.6714   31.2731 C   0  0  0  0  0  0  0  0  0  0  0  0
   10.9928   -1.7967   33.2861 C   0  0  0  0  0  0  0  0  0  0  0  0
   13.7383   -0.7386   31.1658 N   0  0  0  0  0  0  0  0  0  0  0  0
   11.0463   -3.7548   32.6850 P   0  0  0  0  0  0  0  0  0  0  0  0
   11.0401   -4.1145   31.4430 O   0  0  0  0  0  0  0  0  0  0  0  0
   12.3303   -3.6319   33.2449 O   0  0  0  0  0  0  0  0  0  0  0  0
   10.8353    1.2004   33.6842 C   0  0  1  0  0  0  0  0  0  0  0  0
   11.0311    4.4738   34.1985 C   0  0  0  0  0  0  0  0  0  0  0  0
   11.4436    5.1405   34.0838 O   0  0  0  0  0  0  0  0  0  0  0  0
   11.9077   -0.5433   32.2366 O   0  0  0  0  0  0  0  0  0  0  0  0
   10.9713    2.9514   33.8070 C   0  0  1  0  0  0  0  0  0  0  0  0
   11.6782    0.1731   32.6268 C   0  0  0  0  0  0  0  0  0  0  0  0
   15.0927    0.3798   30.1919 N   0  0  0  0  0  0  0  0  0  0  0  0
   10.2349   -4.4881   33.2323 O   0  0  0  0  0  0  0  0  0  0  0  0
   14.9212    0.9035   30.0491 C   0  0  0  0  0  0  0  0  0  0  0  0
  1  2  1  6
  3  2  1  0
  5  3  1  0
  7  6  1  0
  8  4  1  0
  8  6  1  0
  9  1  1  0
 11 10  2  0
 12  4  1  0
 13  1  1  0
 13  9  1  0
 13 10  1  1
  9 14  1  6
 14 12  1  0
 16  6  1  0
 17  3  1  0
 17 15  2  3
M  END
>  <ID>  (1) 
conformer_0

$$$$
