
     RDKit          3D

 17 16  0  0  0  0  0  0  0  0999 V2000
   10.8854    3.5097   34.1735 C   0  0  0  0  0  0  0  0  0  0  0  0
   13.2904    2.2035   32.4805 C   0  0  1  0  0  0  0  0  0  0  0  0
   11.0618   -1.6051   33.1016 C   0  0  0  0  0  0  0  0  0  0  0  0
   13.7801    1.2557   31.2955 C   0  0  0  0  0  0  0  0  0  0  0  0
   13.7705   -0.5789   30.9293 N   0  0  0  0  0  0  0  0  0  0  0  0
   11.1031   -3.5527   32.8236 P   0  0  0  0  0  0  0  0  0  0  0  0
   11.1532   -4.1608   31.7070 O   0  0  0  0  0  0  0  0  0  0  0  0
   11.5905    0.8012   32.9211 C   0  0  0  0  0  0  0  0  0  0  0  0
   12.1592   -3.1040   33.2131 O   0  0  0  0  0  0  0  0  0  0  0  0
   11.4361    4.3270   34.0546 C   0  0  0  0  0  0  0  0  0  0  0  0
   10.2191   -4.2414   33.7574 O   0  0  0  0  0  0  0  0  0  0  0  0
   13.6337    3.9073   32.0831 C   0  0  0  0  0  0  0  0  0  0  0  0
   14.8580    0.8411   29.8496 C   0  0  0  0  0  3  0  0  0  0  0  0
   11.6822    0.0222   32.3886 C   0  0  0  0  0  0  0  0  0  0  0  0
   14.4920    1.1261   30.6183 N   0  0  0  0  0  0  0  0  0  0  0  0
   11.9732    2.9057   32.6188 C   0  0  0  0  0  0  0  0  0  0  0  0
   10.8890    1.6352   33.6741 C   0  0  2  0  0  0  0  0  0  0  0  0
  4  2  1  0
  5  4  2  3
  7  6  1  0
  9  3  1  0
  9  6  1  0
 10  1  2  3
 11  6  1  0
  2 12  1  6
 14  3  1  0
 14  8  1  0
 15  4  1  0
 15 13  2  3
 16  2  1  0
 17  1  1  0
 17  8  1  1
 17 16  1  0
M  RAD  1  13   2
M  END
>  <ID>  (1) 
conformer_0

$$$$
