
     RDKit          3D

 14 14  0  0  0  0  0  0  0  0999 V2000
   13.0758    2.4610   32.5364 C   0  0  0  0  0  0  0  0  0  0  0  0
   11.7399    3.3046   32.5922 C   0  0  0  0  0  0  0  0  0  0  0  0
   13.8111    1.1525   31.3514 C   0  0  0  0  0  0  0  0  0  0  0  0
   10.8843    2.0465   33.0654 C   0  0  0  0  0  0  0  0  0  0  0  0
   15.3395    2.0084   29.8490 S   0  0  0  0  0  0  0  0  0  0  0  0
   11.0247   -3.6938   32.9862 P   0  0  0  0  0  0  0  0  0  0  0  0
   10.5327   -4.9231   33.3180 O   0  0  0  0  0  0  0  0  0  0  0  0
   14.0104   -0.1649   30.8775 N   0  0  0  0  0  0  0  0  0  0  0  0
   11.4076   -3.0097   33.5293 O   0  0  0  0  0  0  0  0  0  0  0  0
   11.6859    4.6132   33.5334 C   0  0  0  0  0  0  0  0  0  0  0  0
   10.9267   -1.3855   33.4107 C   0  0  0  0  0  0  0  0  0  0  0  0
   11.0206    0.5788   33.1581 C   0  0  0  0  0  0  0  0  0  0  0  0
   14.7622    0.7046   30.1326 C   0  0  0  0  0  0  0  0  0  0  0  0
   11.6490   -3.9921   31.8238 O   0  0  0  0  0  0  0  0  0  0  0  0
  2  1  1  0
  3  1  1  0
  4  2  1  0
  7  6  1  0
  8  3  2  0
  9  6  1  0
 10  2  1  0
 11  9  1  0
 12  4  1  0
 12 11  3  0
 13  3  1  0
 13  5  2  0
 13  8  1  0
 14  6  1  0
M  END
>  <ID>  (1) 
conformer_0

$$$$
