
     RDKit          3D

 15 16  0  0  0  0  0  0  0  0999 V2000
   13.3919    2.5958   32.4711 C   0  0  0  0  0  0  0  0  0  0  0  0
   12.6736    3.7204   32.1958 C   0  0  0  0  0  0  0  0  0  0  0  0
   11.4375   -0.8124   32.6406 C   0  0  0  0  0  0  0  0  0  0  0  0
   13.5933    0.7529   31.5814 C   0  0  0  0  0  0  0  0  0  0  0  0
   14.0787   -0.5171   30.8981 N   0  0  0  0  0  0  0  0  0  0  0  0
   11.8257    1.7767   32.9641 C   0  0  0  0  0  0  0  0  0  0  0  0
   11.2153   -3.6184   32.5687 P   0  0  0  0  0  0  0  0  0  0  0  0
   11.5032    4.2096   33.5924 C   0  0  0  0  0  0  0  0  0  0  0  0
   10.9294   -4.4483   31.7231 O   0  0  0  0  0  0  0  0  0  0  0  0
   12.1550   -3.1216   32.8189 O   0  0  0  0  0  0  0  0  0  0  0  0
   10.9318    2.8482   33.5555 C   0  0  0  0  0  0  0  0  0  0  0  0
   15.1365    1.5635   29.9241 S   0  0  0  0  0  0  0  0  0  0  0  0
   10.1758   -3.8788   33.6406 O   0  0  0  0  0  0  0  0  0  0  0  0
   14.7293    0.5754   30.1610 C   0  0  0  0  0  0  0  0  0  0  0  0
   10.7693    0.6784   33.2859 C   0  0  0  0  0  0  0  0  0  0  0  0
  2  1  1  0
  4  1  1  0
  5  4  1  0
  6  1  1  0
  8  2  1  0
  9  7  1  0
 10  3  1  0
 10  7  1  0
 11  6  2  0
 11  8  1  0
 13  7  1  0
 14  4  1  0
 14  5  1  0
 14 12  2  0
 15  3  1  0
 15  6  1  0
M  END
>  <ID>  (1) 
conformer_0

$$$$
