
     RDKit          3D

 18 19  0  0  0  0  0  0  0  0999 V2000
   13.3630    2.4473   33.0521 C   0  0  0  0  0  0  0  0  0  0  0  0
   11.6571    3.0515   33.3454 C   0  0  0  0  0  0  0  0  0  0  0  0
   13.9610    1.2464   31.1541 C   0  0  0  0  0  0  0  0  0  0  0  0
   11.7189   -0.0826   32.6184 C   0  0  0  0  0  0  0  0  0  0  0  0
   11.1391   -3.7311   32.5147 P   0  0  0  0  0  0  0  0  0  0  0  0
   11.9101    4.1386   33.6574 C   0  0  0  0  0  0  0  0  0  0  0  0
   10.8038   -4.3839   31.5599 O   0  0  0  0  0  0  0  0  0  0  0  0
   11.4820    0.7967   33.1152 C   0  0  0  0  0  0  0  0  0  0  0  0
   12.3060   -3.4648   32.9747 O   0  0  0  0  0  0  0  0  0  0  0  0
   13.9318   -0.3067   30.9592 N   0  0  0  0  0  0  0  0  0  0  0  0
   10.1795   -4.0827   33.7036 O   0  0  0  0  0  0  0  0  0  0  0  0
   15.2838    1.2588   29.8650 S   0  0  0  0  0  0  0  0  0  0  0  0
   10.6177    1.7356   33.5030 C   0  0  0  0  0  0  0  0  0  0  0  0
   11.0465    5.4838   33.2643 O   0  0  0  0  0  0  0  0  0  0  0  0
   14.7067    0.3113   30.1395 C   0  0  0  0  0  0  0  0  0  0  0  0
   12.4539    5.1608   34.2857 N   0  0  0  0  0  0  0  0  0  0  0  0
   11.2044   -1.4980   32.6929 C   0  0  0  0  0  0  0  0  0  0  0  0
   12.9484    2.8358   31.9334 C   0  0  0  0  0  0  0  0  0  0  0  0
  2  1  1  0
  6  2  1  0
  7  5  1  0
  8  4  1  0
  9  5  1  0
 10  3  1  0
 11  5  1  0
 12  3  1  0
 13  2  1  0
 13  8  1  0
 14  6  1  0
 15 10  1  0
 15 12  1  0
 16  6  1  0
 16 14  1  0
 17  4  1  0
 17  9  1  0
 18  1  1  0
 18  3  1  0
M  END
>  <ID>  (1) 
conformer_0

$$$$
