
     RDKit          3D

 16 15  0  0  0  0  0  0  0  0999 V2000
   13.3993    3.2546   32.1541 C   0  0  0  0  0  0  0  0  0  0  0  0
   12.3377    2.6407   32.7765 C   0  0  0  0  0  0  0  0  0  0  0  0
   13.9949    1.6355   31.2136 C   0  0  0  0  0  0  0  0  0  0  0  0
   11.3686   -0.8306   32.6675 C   0  0  0  0  0  0  0  0  0  0  0  0
   14.1406    0.0439   30.6392 N   0  0  0  0  0  0  0  0  0  0  0  0
   11.0139   -3.7421   32.7182 P   0  0  0  0  0  0  0  0  0  0  0  0
   12.1457   -3.5314   33.3299 O   0  0  0  0  0  0  0  0  0  0  0  0
   10.9511   -4.2088   31.6294 O   0  0  0  0  0  0  0  0  0  0  0  0
   11.3063    2.5414   33.6063 C   0  0  0  0  0  0  0  0  0  0  0  0
   12.0162    4.3905   33.7009 C   0  0  0  0  0  0  0  0  0  0  0  0
    9.9176   -4.0339   33.7311 O   0  0  0  0  0  0  0  0  0  0  0  0
   10.8522    5.1464   33.4604 O   0  0  0  0  0  0  0  0  0  0  0  0
   14.8067    0.8636   30.0437 C   0  0  0  0  0  0  0  0  0  0  0  0
   12.3953    5.4286   34.4444 N   0  0  0  0  0  0  0  0  0  0  0  0
   11.0040    1.0005   33.2040 C   0  0  0  0  0  0  0  0  0  0  0  0
   15.3731    1.9883   29.9272 S   0  0  0  0  0  0  0  0  0  0  0  0
  2  1  1  0
  3  1  1  0
  7  4  1  0
  7  6  1  0
  8  6  1  0
  9  2  1  0
 10  9  1  0
 11  6  1  0
 12 10  1  0
 13  3  1  0
 13  5  1  0
 14 10  1  0
 15  4  1  0
 15  9  1  0
 16 13  2  0
M  END
>  <ID>  (1) 
conformer_0

$$$$
