
     RDKit          3D

 14 14  0  0  0  0  0  0  0  0999 V2000
   12.2958    2.3870   32.5325 C   0  0  0  0  0  0  0  0  0  0  0  0
   10.6056    2.3379   33.8524 C   0  0  0  0  0  0  0  0  0  0  0  0
   13.9804    1.2609   31.0669 C   0  0  0  0  0  0  0  0  0  0  0  0
   11.2548   -0.5488   32.7611 C   0  0  0  0  0  0  0  0  0  0  0  0
   11.2471   -3.5791   32.6732 P   0  0  0  0  0  0  0  0  0  0  0  0
   14.0039   -0.1351   30.7855 N   0  0  0  0  0  0  0  0  0  0  0  0
   13.1979    3.3118   32.7109 C   0  0  0  0  0  0  0  0  0  0  0  0
   11.5666    4.0914   33.7382 C   0  0  0  0  0  0  0  0  0  0  0  0
   12.6406   -3.5504   33.1207 O   0  0  0  0  0  0  0  0  0  0  0  0
   11.0087   -4.3222   31.6315 O   0  0  0  0  0  0  0  0  0  0  0  0
   11.0133    1.2109   33.2599 C   0  0  0  0  0  0  0  0  0  0  0  0
   14.8425    0.7080   29.9109 C   0  0  0  0  0  0  0  0  0  0  0  0
   11.0307   -2.2002   32.6476 O   0  0  0  0  0  0  0  0  0  0  0  0
   10.4051   -4.4029   33.5200 O   0  0  0  0  0  0  0  0  0  0  0  0
  6  3  2  0
  7  1  1  0
  7  3  1  0
  8  2  1  0
  9  4  2  0
 10  5  1  0
 11  1  1  0
 11  2  2  3
 11  4  1  0
 12  3  1  0
 12  6  1  0
 13  4  1  0
 13  5  1  0
 14  5  1  0
M  END
>  <ID>  (1) 
conformer_0

$$$$
