
     RDKit          3D

 18 19  0  0  0  0  0  0  0  0999 V2000
   13.5819    2.8389   32.0036 C   0  0  0  0  0  0  0  0  0  0  0  0
   11.7304    3.3087   32.0107 C   0  0  0  0  0  0  0  0  0  0  0  0
   14.9714    0.7068   29.9175 C   0  0  0  0  0  0  0  0  0  0  0  0
   12.8391    1.7581   32.7512 C   0  0  0  0  0  0  0  0  0  0  0  0
   11.0906   -1.5162   32.9082 C   0  0  0  0  0  0  0  0  0  0  0  0
   14.2914   -0.4657   30.6799 N   0  0  0  0  0  0  0  0  0  0  0  0
   10.9614   -3.7188   32.8306 P   0  0  0  0  0  0  0  0  0  0  0  0
   10.8112   -4.3914   31.8372 O   0  0  0  0  0  0  0  0  0  0  0  0
   12.1829   -3.3813   33.1675 O   0  0  0  0  0  0  0  0  0  0  0  0
   11.6055    4.1500   33.9684 C   0  0  0  0  0  0  0  0  0  0  0  0
   15.2667    1.8136   29.4422 S   0  0  0  0  0  0  0  0  0  0  0  0
   12.0800    4.7450   35.0796 O   0  0  0  0  0  0  0  0  0  0  0  0
   10.8485    1.5816   33.3436 C   0  0  0  0  0  0  0  0  0  0  0  0
    9.9846   -3.9061   33.8907 O   0  0  0  0  0  0  0  0  0  0  0  0
   14.1357    1.3170   31.0343 C   0  0  0  0  0  0  0  0  0  0  0  0
   11.0698    0.1800   33.1984 C   0  0  0  0  0  0  0  0  0  0  0  0
   12.3138    0.0029   32.4756 C   0  0  0  0  0  0  0  0  0  0  0  0
   11.4007    3.0639   33.6965 C   0  0  0  0  0  0  0  0  0  0  0  0
  2  1  1  0
  4  1  1  0
  6  3  1  0
  8  7  1  0
  9  5  1  0
  9  7  1  0
 11  3  2  0
 12 10  1  0
 14  7  1  0
 15  1  1  0
 15  3  1  0
 15  6  2  0
 16  5  1  0
 16 13  1  0
 17  4  1  0
 17 16  1  0
 18  2  1  0
 18 10  1  0
 18 13  1  0
M  END
>  <ID>  (1) 
conformer_0

$$$$
