
     RDKit          3D

 17 16  0  0  0  0  0  0  0  0999 V2000
   10.8932    2.2848   33.2846 C   0  0  0  0  0  0  0  0  0  0  0  0
   12.0536    2.8155   32.6819 C   0  0  1  0  0  0  0  0  0  0  0  0
   11.0155   -1.1712   32.7867 C   0  0  1  0  0  0  0  0  0  0  0  0
   11.0362   -3.7492   32.7358 P   0  0  0  0  0  0  0  0  0  0  0  0
   10.8442   -4.5255   31.7393 O   0  0  0  0  0  0  0  0  0  0  0  0
   12.5928   -3.7541   33.2945 O   0  0  0  0  0  0  0  0  0  0  0  0
   11.4163    5.4204   32.7080 O   0  0  0  0  0  0  0  0  0  0  0  0
   11.6713    4.3558   33.4515 C   0  0  0  0  0  0  0  0  0  0  0  0
   13.5607    0.1457   31.5594 N   0  0  0  0  0  0  0  0  0  0  0  0
   13.2862    3.1511   32.3016 C   0  0  0  0  0  0  0  0  0  0  0  0
   10.1494   -4.3457   33.8778 O   0  0  0  0  0  0  0  0  0  0  0  0
   15.2872    1.7581   29.8663 S   0  0  0  0  0  3  0  0  0  0  0  0
   14.4542    0.6919   30.5577 C   0  0  0  0  0  3  0  0  0  0  0  0
   11.9096    0.1718   32.5203 C   0  0  2  0  0  0  0  0  0  0  0  0
   10.9726   -2.4996   32.7575 O   0  0  0  0  0  0  0  0  0  0  0  0
   13.7466    2.2014   31.9615 C   0  0  0  0  0  0  0  0  0  0  0  0
   10.9836    0.9084   33.3697 C   0  0  0  0  0  0  0  0  0  0  0  0
  2  1  1  1
  5  4  1  0
  3  6  1  1
  8  2  1  0
  8  7  1  0
 10  2  1  0
 11  4  1  0
 13  9  1  0
 13 12  2  3
 14  3  1  0
 14  9  1  0
 15  3  1  0
 15  4  1  0
 16 10  1  0
 17  1  1  0
 14 17  1  1
M  RAD  2  12   2  13   2
M  END
>  <ID>  (1) 
conformer_0

$$$$
