
     RDKit          3D

 15 14  0  0  0  0  0  0  0  0999 V2000
   11.1938    1.4639   33.1642 C   0  0  0  0  0  0  0  0  0  0  0  0
   11.7194    2.4115   33.1439 C   0  0  0  0  0  0  0  0  0  0  0  0
   11.3884   -0.6785   32.8863 C   0  0  0  0  0  0  0  0  0  0  0  0
   13.6634    0.7931   31.2763 C   0  0  0  0  0  0  0  0  0  0  0  0
   11.2129   -3.5724   32.7391 P   0  0  0  0  0  0  0  0  0  0  0  0
   11.0411   -3.9857   31.6421 O   0  0  0  0  0  0  0  0  0  0  0  0
   13.9281    0.0574   31.0403 N   0  0  0  0  0  0  0  0  0  0  0  0
   12.4261   -3.4104   33.1282 O   0  0  0  0  0  0  0  0  0  0  0  0
   11.7475    4.1873   33.7098 C   0  0  0  0  0  0  0  0  0  0  0  0
   13.0410    3.1307   32.4666 C   0  0  0  0  0  0  0  0  0  0  0  0
   10.7985    5.1634   33.5460 O   0  0  0  0  0  0  0  0  0  0  0  0
   10.0863   -3.7679   33.6542 O   0  0  0  0  0  0  0  0  0  0  0  0
   12.2918    5.1708   34.6112 N   0  0  0  0  0  0  0  0  0  0  0  0
   14.7538    0.3588   30.0003 C   0  0  0  0  0  0  0  0  0  0  0  0
   14.9659   -0.3540   29.4286 N   0  0  0  0  0  0  0  0  0  0  0  0
  2  1  1  0
  3  1  1  0
  6  5  1  0
  7  4  1  0
  8  3  1  0
  8  5  1  0
  9  2  1  0
 10  2  1  0
 10  4  1  0
 11  9  2  0
 12  5  1  0
 13  9  1  0
 14  7  2  3
 15 14  1  0
M  END
>  <ID>  (1) 
conformer_0

$$$$
