
     RDKit          3D

 18 21  0  0  0  0  0  0  0  0999 V2000
   10.5008    2.5145   33.6464 C   0  0  0  0  0  0  0  0  0  0  0  0
   12.2070    3.2528   32.6273 C   0  0  0  0  0  0  0  0  0  0  0  0
   13.8582    1.3679   31.2293 C   0  0  0  0  0  0  0  0  0  0  0  0
   11.3417   -1.6065   33.3427 C   0  0  0  0  0  0  0  0  0  0  0  0
   13.8239   -0.1593   31.0622 N   0  0  0  0  0  0  0  0  0  0  0  0
   11.4505   -3.6769   32.5737 P   0  0  0  0  0  0  0  0  0  0  0  0
   11.0658   -3.9637   31.4169 O   0  0  0  0  0  0  0  0  0  0  0  0
   12.9548   -3.9450   33.1326 O   0  0  0  0  0  0  0  0  0  0  0  0
   13.5865    2.7490   32.0812 C   0  0  0  0  0  0  0  0  0  0  0  0
   15.2405    1.6598   29.7820 S   0  0  0  0  0  0  0  0  0  0  0  0
   11.3564    4.2368   33.5363 C   0  0  0  0  0  0  0  0  0  0  0  0
   11.4961   -2.3396   32.8149 O   0  0  0  0  0  0  0  0  0  0  0  0
   10.5713    0.8901   33.4919 C   0  0  0  0  0  0  0  0  0  0  0  0
   14.6984    0.4198   30.0733 C   0  0  0  0  0  0  0  0  0  0  0  0
   11.0159    5.2322   33.7615 S   0  0  0  0  0  0  0  0  0  0  0  0
   10.6391   -4.6903   33.1563 O   0  0  0  0  0  0  0  0  0  0  0  0
   11.4477   -0.0245   32.7449 C   0  0  0  0  0  0  0  0  0  0  0  0
   12.0121    1.6663   32.7906 C   0  0  0  0  0  0  0  0  0  0  0  0
  5  3  2  0
  7  6  1  0
  8  4  1  0
  9  2  1  0
  9  3  1  0
 11  1  1  0
 11  2  1  0
 12  4  1  0
 12  6  1  0
 13  1  1  0
 14  3  1  0
 14  5  1  0
 14 10  2  0
 15 11  2  0
 16  6  1  0
 17  4  1  0
 17 13  1  0
 18  1  1  0
 18  2  1  0
 18 13  1  0
 18 17  1  0
M  END
>  <ID>  (1) 
conformer_0

$$$$
