
     RDKit          3D

 16 17  0  0  0  0  0  0  0  0999 V2000
   11.8358    2.9769   32.2347 C   0  0  0  0  0  0  0  0  0  0  0  0
   12.9820    2.8437   32.1069 C   0  0  0  0  0  0  0  0  0  0  0  0
   13.6896    0.9750   31.3498 C   0  0  0  0  0  0  0  0  0  0  0  0
   10.8468   -1.5831   33.1469 C   0  0  0  0  0  0  0  0  0  0  0  0
   13.9924   -0.1389   30.7853 N   0  0  0  0  0  0  0  0  0  0  0  0
   11.0536   -3.7650   32.7171 P   0  0  0  0  0  0  0  0  0  0  0  0
   10.8195   -4.2454   31.6215 O   0  0  0  0  0  0  0  0  0  0  0  0
   12.2798   -3.7204   33.1575 O   0  0  0  0  0  0  0  0  0  0  0  0
   11.9037    4.1309   33.6006 C   0  0  0  0  0  0  0  0  0  0  0  0
   11.0643    5.2809   33.5829 O   0  0  0  0  0  0  0  0  0  0  0  0
   11.5052    1.0981   33.0998 C   0  0  0  0  0  0  0  0  0  0  0  0
    9.9029   -3.8908   33.6847 O   0  0  0  0  0  0  0  0  0  0  0  0
   14.8207    0.6365   30.0549 C   0  0  0  0  0  0  0  0  0  0  0  0
   15.4437    1.8722   29.8090 S   0  0  0  0  0  0  0  0  0  0  0  0
   11.3311    2.4619   33.6898 C   0  0  0  0  0  0  0  0  0  0  0  0
   11.3640    0.0441   32.5367 C   0  0  0  0  0  0  0  0  0  0  0  0
  2  1  1  0
  3  2  1  0
  5  3  1  0
  7  6  1  0
  8  4  1  0
  8  6  1  0
  9  1  1  0
 10  9  1  0
 12  6  1  0
 13  3  1  0
 13  5  1  0
 14 13  2  0
 15  1  1  0
 15  9  1  0
 15 11  1  0
 16  4  1  0
 16 11  1  0
M  END
>  <ID>  (1) 
conformer_0

$$$$
