
     RDKit          3D

 20 22  0  0  0  0  0  0  0  0999 V2000
   13.0797    2.9963   33.2851 C   0  0  0  0  0  0  0  0  0  0  0  0
   11.4234    3.3370   32.3509 C   0  0  0  0  0  0  0  0  0  0  0  0
   10.8954   -1.2920   33.0484 C   0  0  0  0  0  0  0  0  0  0  0  0
   13.9692    1.1593   31.2992 C   0  0  0  0  0  0  0  0  0  0  0  0
   14.6583   -0.4478   30.2756 N   0  0  0  0  0  0  0  0  0  0  0  0
   11.0499   -3.6256   32.8389 P   0  0  0  0  0  0  0  0  0  0  0  0
   13.6638    2.4901   31.9507 C   0  0  0  0  0  0  0  0  0  0  0  0
   11.1805   -4.1483   31.6223 O   0  0  0  0  0  0  0  0  0  0  0  0
   12.6148   -3.6396   33.5779 O   0  0  0  0  0  0  0  0  0  0  0  0
   11.5565    4.3348   33.6999 C   0  0  0  0  0  0  0  0  0  0  0  0
   15.4571    1.7379   29.7457 S   0  0  0  0  0  0  0  0  0  0  0  0
   10.3695   -4.5595   33.4678 O   0  0  0  0  0  0  0  0  0  0  0  0
   10.8275    0.1182   33.6231 C   0  0  0  0  0  0  0  0  0  0  0  0
   11.6149    5.2214   34.2370 N   0  0  0  0  0  0  0  0  0  0  0  0
   11.9413    0.2216   32.4440 C   0  0  0  0  0  0  0  0  0  0  0  0
   10.8986   -2.4880   32.9703 O   0  0  0  0  0  0  0  0  0  0  0  0
   13.4676   -0.1509   31.5591 N   0  0  0  0  0  0  0  0  0  0  0  0
   14.8145    0.6535   29.8809 C   0  0  0  0  0  0  0  0  0  0  0  0
   10.9766    2.3426   33.7770 C   0  0  0  0  0  0  0  0  0  0  0  0
   11.9124    1.3076   32.6741 C   0  0  0  0  0  0  0  0  0  0  0  0
  2  1  1  0
  7  1  1  0
  7  4  1  0
  8  6  1  0
  9  3  1  0
 10  2  1  0
 12  6  1  0
 13  3  1  0
 14 10  1  0
 15  3  1  0
 15 13  1  0
 16  3  1  0
 16  6  1  0
 17  4  1  0
 17  5  1  0
 17 15  1  0
 18  4  1  0
 18  5  1  0
 18 11  2  0
 19  2  1  0
 20 15  1  0
 20 19  1  0
M  END
>  <ID>  (1) 
conformer_0

$$$$
