
     RDKit          3D

 16 16  0  0  0  0  0  0  0  0999 V2000
   10.9233    2.4737   33.4431 C   0  0  0  0  0  0  0  0  0  0  0  0
   12.4858    3.2995   32.8417 C   0  0  0  0  0  0  0  0  0  0  0  0
   13.6139    0.6449   31.4736 C   0  0  0  0  0  0  0  0  0  0  0  0
   11.3405   -0.9692   33.1215 C   0  0  0  0  0  0  0  0  0  0  0  0
   13.9663   -0.4542   30.7872 N   0  0  0  0  0  0  0  0  0  0  0  0
   11.1951   -3.6055   32.6468 P   0  0  0  0  0  0  0  0  0  0  0  0
   15.4850    1.6845   29.7496 S   0  0  0  0  0  0  0  0  0  0  0  0
   11.1125    1.0217   33.4097 C   0  0  0  0  0  0  0  0  0  0  0  0
   10.9613   -4.2988   31.6684 O   0  0  0  0  0  0  0  0  0  0  0  0
   11.5397    4.4456   33.6298 C   0  0  0  0  0  0  0  0  0  0  0  0
   10.5723    5.4881   32.9936 O   0  0  0  0  0  0  0  0  0  0  0  0
   12.1627    5.4063   34.2063 O   0  0  0  0  0  0  0  0  0  0  0  0
   12.2078   -3.0516   32.6875 O   0  0  0  0  0  0  0  0  0  0  0  0
   12.9397    2.1388   32.5566 C   0  0  0  0  0  0  0  0  0  0  0  0
   10.2226   -3.9543   33.6677 O   0  0  0  0  0  0  0  0  0  0  0  0
   14.7532    0.6467   30.1532 C   0  0  0  0  0  0  0  0  0  0  0  0
  2  1  1  0
  5  3  2  0
  8  1  1  0
  8  4  3  0
  9  6  1  0
 10  2  1  0
 11 10  1  0
 12 10  1  0
 13  4  1  0
 13  6  1  0
 14  2  1  0
 14  3  1  0
 15  6  1  0
 16  3  1  0
 16  5  1  0
 16  7  2  0
M  END
>  <ID>  (1) 
conformer_0

$$$$
