
     RDKit          3D

 19 19  0  0  0  0  0  0  0  0999 V2000
   10.2639    2.6827   33.0750 C   0  0  0  0  0  0  0  0  0  0  0  0
   11.4801    2.5584   33.4402 C   0  0  0  0  0  0  0  0  0  0  0  0
   10.8704   -1.0403   32.9266 C   0  0  0  0  0  0  0  0  0  0  0  0
   14.8126    0.3514   30.2542 N   0  0  0  0  0  0  0  0  0  0  0  0
   11.1736   -3.5556   32.6851 P   0  0  0  0  0  0  0  0  0  0  0  0
   14.2916    1.0573   30.6106 C   0  0  0  0  0  0  0  0  0  0  0  0
   11.0324   -4.3187   31.8088 O   0  0  0  0  0  0  0  0  0  0  0  0
   10.7177    0.7466   33.5277 C   0  0  0  0  0  0  0  0  0  0  0  0
   12.6901   -3.7220   33.3153 O   0  0  0  0  0  0  0  0  0  0  0  0
   11.9027    4.1002   33.5012 C   0  0  0  0  0  0  0  0  0  0  0  0
   12.2631    5.1584   32.6724 O   0  0  0  0  0  0  0  0  0  0  0  0
   14.9935    1.7646   29.8712 S   0  0  0  0  0  0  0  0  0  0  0  0
   10.0793   -3.9028   33.7428 O   0  0  0  0  0  0  0  0  0  0  0  0
   11.6889    4.7864   34.6687 N   0  0  0  0  0  0  0  0  0  0  0  0
   13.7258    2.9832   32.9442 C   0  0  0  0  0  0  0  0  0  0  0  0
   12.9084    1.9446   32.4409 C   0  0  0  0  0  0  0  0  0  0  0  0
   12.1943    0.7399   32.5082 C   0  0  0  0  0  0  0  0  0  0  0  0
   11.4501   -2.1736   32.5977 O   0  0  0  0  0  0  0  0  0  0  0  0
   13.5368   -0.1915   31.3834 N   0  0  0  0  0  0  0  0  0  0  0  0
  2  1  1  0
  6  4  1  0
  7  5  1  0
  8  2  1  0
  8  3  1  0
  9  3  1  0
 10  2  1  0
 11 10  2  0
 12  6  2  0
 13  5  1  0
 14 10  1  0
 16  2  1  0
 16 15  1  0
 17  8  1  0
 17 16  1  0
 18  3  1  0
 18  5  1  0
 19  6  1  0
 19 17  1  0
M  END
>  <ID>  (1) 
conformer_0

$$$$
