
     RDKit          3D

 18 21  0  0  0  0  0  0  0  0999 V2000
   12.6576    3.2976   31.5798 C   0  0  0  0  0  0  0  0  0  0  0  0
   11.0072    3.4090   32.8594 C   0  0  0  0  0  0  0  0  0  0  0  0
   13.9236    1.3016   31.1222 C   0  0  0  0  0  0  0  0  0  0  0  0
   13.8668   -0.2650   30.8179 N   0  0  0  0  0  0  0  0  0  0  0  0
   10.9486   -1.6806   33.3419 C   0  0  0  0  0  0  0  0  0  0  0  0
   12.1073    1.1474   32.7221 C   0  0  0  0  0  0  0  0  0  0  0  0
   11.0689   -3.6444   33.0071 P   0  0  0  0  0  0  0  0  0  0  0  0
   11.0162   -4.4261   32.0211 O   0  0  0  0  0  0  0  0  0  0  0  0
   12.2396   -3.3740   33.4145 O   0  0  0  0  0  0  0  0  0  0  0  0
   11.5668    4.2486   33.4215 C   0  0  0  0  0  0  0  0  0  0  0  0
   15.2191    2.1308   29.5986 S   0  0  0  0  0  0  0  0  0  0  0  0
   12.9672    2.5520   32.7560 C   0  0  0  0  0  0  0  0  0  0  0  0
   14.8580    0.7439   29.9663 C   0  0  0  0  0  0  0  0  0  0  0  0
   10.0801   -4.0757   33.8920 O   0  0  0  0  0  0  0  0  0  0  0  0
   12.3660    5.2785   33.8841 O   0  0  0  0  0  0  0  0  0  0  0  0
   10.5478    1.9462   33.4325 C   0  0  0  0  0  0  0  0  0  0  0  0
   10.9689    0.1667   33.5264 C   0  0  0  0  0  0  0  0  0  0  0  0
   11.8422   -0.2943   32.3805 C   0  0  0  0  0  0  0  0  0  0  0  0
  4  3  2  0
  8  7  1  0
  9  5  1  0
  9  7  1  0
 10  2  1  0
 12  1  1  0
 12  3  1  0
 12  6  1  0
 13  3  1  0
 13  4  1  0
 13 11  2  0
 14  7  1  0
 15 10  1  0
 16  2  1  0
 16  6  1  0
 17  5  1  0
 17  6  1  0
 17 16  1  0
 18  5  1  0
 18  6  1  0
 18 17  1  0
M  END
>  <ID>  (1) 
conformer_0

$$$$
