
     RDKit          3D

 14 14  0  0  0  0  0  0  0  0999 V2000
   11.0865    0.7252   33.3450 C   0  0  0  0  0  0  0  0  0  0  0  0
   10.8226    2.0550   33.7363 C   0  0  0  0  0  0  0  0  0  0  0  0
   11.3907   -0.7216   32.6839 C   0  0  0  0  0  0  0  0  0  0  0  0
   11.0344    3.1347   33.1406 C   0  0  0  0  0  0  0  0  0  0  0  0
   11.0874   -3.7227   32.7055 P   0  0  0  0  0  0  0  0  0  0  0  0
   11.9820    4.2590   33.4882 C   0  0  1  0  0  0  0  0  0  0  0  0
   10.9369   -4.6787   31.9355 O   0  0  0  0  0  0  0  0  0  0  0  0
   11.8940   -3.0207   32.8594 O   0  0  0  0  0  0  0  0  0  0  0  0
   14.3601    0.7805   30.5717 C   0  0  0  0  0  0  0  0  0  0  0  0
   14.4180   -0.4122   30.4578 N   0  0  0  0  0  0  0  0  0  0  0  0
   10.1802   -4.3200   33.8661 O   0  0  0  0  0  0  0  0  0  0  0  0
   12.5667    1.7301   32.7082 C   0  0  0  0  0  0  0  0  0  0  0  0
   13.0681    3.0956   32.4883 C   0  0  2  0  0  0  0  0  0  0  0  0
   11.0379    5.4429   33.3950 O   0  0  0  0  0  0  0  0  0  0  0  0
  2  1  1  0
  3  1  1  0
  4  2  1  0
  6  4  1  0
  7  5  1  0
  8  3  1  0
  8  5  1  0
 10  9  2  3
 11  5  1  0
 12  1  2  0
 13  6  1  0
 13  9  1  6
 13 12  1  0
  6 14  1  6
M  END
>  <ID>  (1) 
conformer_0

$$$$
