
     RDKit          3D

 20 21  0  0  0  0  0  0  0  0999 V2000
   11.8069    1.3505   32.7475 C   0  0  2  0  0  0  0  0  0  0  0  0
   11.3330    3.0113   32.5791 C   0  0  1  0  0  0  0  0  0  0  0  0
   14.0950    1.4821   31.2064 C   0  0  2  0  0  0  0  0  0  0  0  0
   10.9427   -1.0409   33.0402 C   0  0  1  0  0  0  0  0  0  0  0  0
   11.0384    5.4552   33.2007 O   0  0  0  0  0  0  0  0  0  0  0  0
   11.1537   -3.7116   32.8588 P   0  0  0  0  0  0  0  0  0  0  0  0
   13.3647    3.3597   33.0134 C   0  0  0  0  0  0  0  0  0  0  0  0
   10.9317   -4.4206   31.7916 O   0  0  0  0  0  0  0  0  0  0  0  0
   12.6435   -3.7247   33.5587 O   0  0  0  0  0  0  0  0  0  0  0  0
   15.2673    1.6478   29.9006 S   0  0  0  0  0  0  0  0  0  0  0  0
   13.9688   -0.3915   30.6501 N   0  0  0  0  0  0  0  0  0  0  0  0
   11.4818    4.5538   33.7358 C   0  0  2  0  0  0  0  0  0  0  0  0
   10.2008   -4.3969   33.9074 O   0  0  0  0  0  0  0  0  0  0  0  0
   12.0573    5.3952   34.7585 N   0  0  0  0  0  0  0  0  0  0  0  0
   13.9608    2.5583   32.0031 C   0  0  0  0  0  0  0  0  0  0  0  0
   14.6706    0.4494   29.9869 C   0  0  0  0  0  0  0  0  0  0  0  0
   11.9572    0.6315   32.3451 C   0  0  0  0  0  0  0  0  0  0  0  0
   11.1836   -2.4392   32.8876 O   0  0  0  0  0  0  0  0  0  0  0  0
   11.0202    2.9224   34.0897 C   0  0  0  0  0  0  0  0  0  0  0  0
   10.5639    0.8005   33.5807 C   0  0  0  0  0  0  0  0  0  0  0  0
  2  1  1  0
  2  7  1  6
  8  6  1  0
  4  9  1  1
 10  3  1  0
 12  2  1  0
 12  5  1  0
 13  6  1  0
 12 14  1  1
  3 15  1  1
 15  7  1  0
 16  3  1  0
 16 10  1  0
 16 11  2  3
  1 17  1  6
 18  4  1  0
 18  6  1  0
 19  2  1  0
 19 12  1  0
 20  1  1  0
 20  4  1  0
M  END
>  <ID>  (1) 
conformer_0

$$$$
