
     RDKit          3D

 18 19  0  0  0  0  0  0  0  0999 V2000
   12.7038    3.6196   32.5856 C   0  0  0  0  0  0  0  0  0  0  0  0
   12.9790    2.3514   32.5809 C   0  0  0  0  0  0  0  0  0  0  0  0
   13.8836    1.1442   31.2483 C   0  0  0  0  0  0  0  0  0  0  0  0
   11.3001    1.3390   33.0337 C   0  0  1  0  0  0  0  0  0  0  0  0
   13.7854   -0.3984   31.0612 N   0  0  0  0  0  0  0  0  0  0  0  0
   10.9354   -3.6840   32.8525 P   0  0  0  0  0  0  0  0  0  0  0  0
   10.9789   -1.5036   33.2837 C   0  0  0  0  0  0  0  0  0  0  0  0
   10.7356   -4.5729   31.9322 O   0  0  0  0  0  0  0  0  0  0  0  0
   12.0131   -3.5985   33.2454 O   0  0  0  0  0  0  0  0  0  0  0  0
   11.7947    4.4282   33.3419 C   0  0  2  0  0  0  0  0  0  0  0  0
   10.7647    5.3130   33.0139 O   0  0  0  0  0  0  0  0  0  0  0  0
   14.9905    1.7490   29.6487 S   0  0  0  0  0  0  0  0  0  0  0  0
   12.0695    5.4961   33.8841 N   0  0  0  0  0  0  0  0  0  0  0  0
   10.8483    0.3676   33.6858 C   0  0  0  0  0  0  0  0  0  0  0  0
    9.7345   -3.8445   33.7758 O   0  0  0  0  0  0  0  0  0  0  0  0
   14.7678    0.4915   30.0437 C   0  0  0  0  0  0  0  0  0  0  0  0
   11.1967    2.7935   33.9540 C   0  0  0  0  0  0  0  0  0  0  0  0
   12.2846    0.3263   32.5269 C   0  0  0  0  0  0  0  0  0  0  0  0
  2  1  2  3
  3  2  1  0
  5  3  2  0
  8  6  1  0
  9  6  1  0
  9  7  1  0
 10  1  1  0
 11 10  1  0
 13 10  1  0
 13 11  1  0
 14  4  1  0
 14  7  1  0
 15  6  1  0
 16  3  1  0
 16  5  1  0
 16 12  2  0
 17  4  1  0
 10 17  1  1
  4 18  1  1
M  END
>  <ID>  (1) 
conformer_0

$$$$
