
     RDKit          3D

 20 20  0  0  0  0  0  0  0  0999 V2000
   11.7862    3.0614   33.7775 C   0  0  0  0  0  0  0  0  0  0  0  0
   13.6584    0.4390   31.2244 C   0  0  1  0  0  0  0  0  0  0  0  0
   11.2954    0.9052   33.0383 C   0  0  2  0  0  0  0  0  0  0  0  0
   11.5075   -0.1038   32.6689 C   0  0  0  0  0  0  0  0  0  0  0  0
   14.8308   -0.3155   30.2154 N   0  0  0  0  0  0  0  0  0  0  0  0
   15.3533    2.2453   30.0004 S   0  0  0  0  0  0  0  0  0  0  0  0
   11.8954    4.1966   33.6221 C   0  0  0  0  0  0  0  0  0  0  0  0
   10.9014   -3.6688   32.7697 P   0  0  0  0  0  0  0  0  0  0  0  0
   11.0689   -4.3466   31.8619 O   0  0  0  0  0  0  0  0  0  0  0  0
   12.9687    3.3723   31.9230 C   0  0  0  0  0  0  0  0  0  0  0  0
    9.6817   -3.7849   33.6157 O   0  0  0  0  0  0  0  0  0  0  0  0
   10.3562    4.9689   33.5269 O   0  0  0  0  0  0  0  0  0  0  0  0
   15.1887    0.6207   29.6338 C   0  0  0  0  0  0  0  0  0  0  0  0
   11.4452   -2.8491   33.0399 O   0  0  0  0  0  0  0  0  0  0  0  0
   12.7235    1.9893   32.2309 C   0  0  2  0  0  0  0  0  0  0  0  0
   12.4251    5.4174   33.6188 N   0  0  0  0  0  0  0  0  0  0  0  0
   11.2196   -1.7466   33.5060 C   0  0  0  0  0  0  0  0  0  0  0  0
   10.5863    1.7146   33.8959 C   0  0  0  0  0  0  0  0  0  0  0  0
   14.3161    1.9069   30.8393 C   0  0  0  0  0  0  0  0  0  0  0  0
   13.3785   -0.3523   31.2998 N   0  0  0  0  0  0  0  0  0  0  0  0
  4  3  1  0
  5  2  1  0
  7  1  1  0
  9  8  1  0
 11  8  1  0
 12  7  2  0
 13  5  1  0
 13  6  1  0
 14  8  1  0
 15  2  1  0
 15  3  1  0
 15 10  1  6
 16  7  1  0
 17  4  2  3
 17 14  1  0
 18  1  1  0
  3 18  1  1
 19  2  1  0
 19  6  1  0
  2 20  1  6
M  END
>  <ID>  (1) 
conformer_0

$$$$
