
     RDKit          3D

 17 18  0  0  0  0  0  0  0  0999 V2000
   12.4324    3.2157   32.1350 C   0  0  0  0  0  0  0  0  0  0  0  0
   13.2932    2.5867   32.5585 C   0  0  0  0  0  0  0  0  0  0  0  0
   14.0575    1.1667   31.2551 C   0  0  0  0  0  0  0  0  0  0  0  0
   10.7373   -1.5281   33.3463 C   0  0  0  0  0  0  0  0  0  0  0  0
   11.7590    4.0854   33.6147 C   0  0  0  0  0  0  0  0  0  0  0  0
   11.0502   -3.6975   32.6520 P   0  0  0  0  0  0  0  0  0  0  0  0
   14.9611    1.7450   29.7535 S   0  0  0  0  0  0  0  0  0  0  0  0
   10.7903   -4.3696   31.6095 O   0  0  0  0  0  0  0  0  0  0  0  0
   12.4559   -3.9640   33.1258 O   0  0  0  0  0  0  0  0  0  0  0  0
   11.3637    1.3462   33.1976 C   0  0  0  0  0  0  0  0  0  0  0  0
   11.4910    5.5568   33.3660 O   0  0  0  0  0  0  0  0  0  0  0  0
   10.0612   -4.1392   33.8146 O   0  0  0  0  0  0  0  0  0  0  0  0
   14.0279   -0.4647   30.9792 N   0  0  0  0  0  0  0  0  0  0  0  0
   10.9176    2.5308   33.2701 C   0  0  0  0  0  0  0  0  0  0  0  0
   11.3697    0.2772   32.7103 C   0  0  0  0  0  0  0  0  0  0  0  0
   11.1429   -2.2582   32.5783 O   0  0  0  0  0  0  0  0  0  0  0  0
   14.9871    0.2355   30.0444 C   0  0  0  0  0  0  0  0  0  0  0  0
  2  1  1  0
  3  2  1  0
  5  1  1  0
  7  3  1  0
  8  6  1  0
  9  4  1  0
 11  5  1  0
 12  6  1  0
 13  3  1  0
 14  5  1  0
 14 10  1  0
 15  4  1  0
 15 10  1  0
 16  4  1  0
 16  6  1  0
 17  3  1  0
 17  7  1  0
 17 13  1  0
M  END
>  <ID>  (1) 
conformer_0

$$$$
