
     RDKit          3D

 18 18  0  0  0  0  0  0  0  0999 V2000
   12.6864    1.9630   32.3388 C   0  0  1  0  0  0  0  0  0  0  0  0
   13.4501    3.5197   32.0759 C   0  0  0  0  0  0  0  0  0  0  0  0
   13.9347    1.3986   31.1225 C   0  0  0  0  0  0  0  0  0  0  0  0
   11.9596   -0.1460   32.6824 C   0  0  0  0  0  0  0  0  0  0  0  0
   10.9287    5.0639   33.1495 O   0  0  0  0  0  0  0  0  0  0  0  0
   11.0667   -3.7172   32.8918 P   0  0  0  0  0  0  0  0  0  0  0  0
   10.9419   -4.5360   31.9529 O   0  0  0  0  0  0  0  0  0  0  0  0
   14.1444    0.2479   30.8951 N   0  0  0  0  0  0  0  0  0  0  0  0
   10.6309    1.9377   33.3641 C   0  0  0  0  0  0  0  0  0  0  0  0
   11.6141    4.2582   33.2828 C   0  0  0  0  0  0  0  0  0  0  0  0
   12.4847   -3.6448   33.5947 O   0  0  0  0  0  0  0  0  0  0  0  0
   10.1345   -4.4016   33.9211 O   0  0  0  0  0  0  0  0  0  0  0  0
   11.0263    0.6154   33.4362 C   0  0  0  0  0  0  0  0  0  0  0  0
   14.8942    0.7970   29.8223 C   0  0  0  0  0  0  0  0  0  0  0  0
   15.3889    2.0569   29.7296 S   0  0  0  0  0  0  0  0  0  0  0  0
   10.8152   -1.3975   33.5600 C   0  0  2  0  0  0  0  0  0  0  0  0
   11.1393   -2.3317   32.7574 O   0  0  0  0  0  0  0  0  0  0  0  0
   12.1146    2.9452   33.2499 C   0  0  2  0  0  0  0  0  0  0  0  0
  1  2  1  6
  3  1  1  0
  7  6  1  0
  8  3  2  3
 10  5  1  0
 12  6  1  0
 13  4  1  0
 13  9  1  0
 14  8  1  0
 15 14  2  0
 16  4  1  0
 16 11  1  1
 17  6  1  0
 17 16  1  0
 18  1  1  0
 18  2  1  0
 18  9  1  6
 18 10  1  0
M  END
>  <ID>  (1) 
conformer_0

$$$$
