
     RDKit          3D

 18 20  0  0  0  0  0  0  0  0999 V2000
   13.4587    2.9814   32.9382 C   0  0  0  0  0  0  0  0  0  0  0  0
   11.1025    1.8234   32.9367 C   0  0  0  0  0  0  0  0  0  0  0  0
   11.0865   -1.2481   33.0647 C   0  0  0  0  0  0  0  0  0  0  0  0
   11.1263   -3.6355   32.6559 P   0  0  0  0  0  0  0  0  0  0  0  0
   15.1201    1.5283   29.8199 S   0  0  0  0  0  0  0  0  0  0  0  0
   13.7627   -0.0511   31.2668 N   0  0  0  0  0  0  0  0  0  0  0  0
   10.8353   -4.3594   31.6751 O   0  0  0  0  0  0  0  0  0  0  0  0
   10.8943    0.2582   33.5484 C   0  0  0  0  0  0  0  0  0  0  0  0
   12.6651   -3.7420   33.2422 O   0  0  0  0  0  0  0  0  0  0  0  0
   11.3459    5.2136   33.5891 O   0  0  0  0  0  0  0  0  0  0  0  0
   11.8897    0.3940   32.5183 C   0  0  0  0  0  0  0  0  0  0  0  0
   11.8144    4.3313   33.8336 C   0  0  0  0  0  0  0  0  0  0  0  0
   14.4830    0.6089   30.3584 C   0  0  0  0  0  0  0  0  0  0  0  0
   10.1381   -4.0613   33.6783 O   0  0  0  0  0  0  0  0  0  0  0  0
   12.2772    3.2659   31.5444 C   0  0  0  0  0  0  0  0  0  0  0  0
   11.2991   -2.4254   32.6541 O   0  0  0  0  0  0  0  0  0  0  0  0
   13.4550    2.0459   31.7650 C   0  0  0  0  0  0  0  0  0  0  0  0
   11.5060    3.1244   33.3168 C   0  0  0  0  0  0  0  0  0  0  0  0
  7  4  1  0
  8  2  1  0
  8  3  1  0
  9  3  1  0
 11  2  1  0
 11  3  1  0
 11  8  1  0
 12 10  2  0
 13  5  2  0
 13  6  2  0
 14  4  1  0
 15  1  1  0
 16  3  1  0
 16  4  1  0
 17  1  1  0
 17  6  1  0
 17 15  1  0
 18  2  1  0
 18 12  1  0
 18 15  1  0
M  END
>  <ID>  (1) 
conformer_0

$$$$
