
     RDKit          3D

 17 17  0  0  0  0  0  0  0  0999 V2000
   12.8401    2.9382   32.9693 C   0  0  0  0  0  0  0  0  0  0  0  0
   13.1502    2.7093   31.8957 C   0  0  0  0  0  0  0  0  0  0  0  0
   13.6910    1.3375   31.3411 C   0  0  0  0  0  0  0  0  0  0  0  0
   10.8287    2.3540   33.6817 C   0  0  0  0  0  0  0  0  0  0  0  0
   11.4651   -1.0273   32.9181 C   0  0  0  0  0  0  0  0  0  0  0  0
   13.9852    0.0009   30.9010 N   0  0  0  0  0  0  0  0  0  0  0  0
   11.4247   -3.9459   31.6408 O   0  0  0  0  0  0  0  0  0  0  0  0
   12.3790   -3.2957   33.3824 O   0  0  0  0  0  0  0  0  0  0  0  0
   11.3185   -3.5603   32.8234 P   0  0  0  0  0  0  0  0  0  0  0  0
   15.4158    1.7861   29.7874 S   0  0  0  0  0  0  0  0  0  0  0  0
   11.7149    4.1055   33.7178 C   0  0  0  0  0  0  0  0  0  0  0  0
   11.1896    5.0775   33.3079 O   0  0  0  0  0  0  0  0  0  0  0  0
   10.7049    0.2218   33.7184 C   0  0  0  0  0  0  0  0  0  0  0  0
   10.0484   -3.8905   33.6164 O   0  0  0  0  0  0  0  0  0  0  0  0
   12.3301    4.9491   34.5733 O   0  0  0  0  0  0  0  0  0  0  0  0
   14.6331    0.6799   30.0516 C   0  0  0  0  0  0  0  0  0  0  0  0
   11.6278    1.3536   32.8535 C   0  0  0  0  0  0  0  0  0  0  0  0
  2  1  1  0
  3  2  1  0
  6  3  1  0
  8  5  1  0
  9  7  1  0
  9  8  1  0
 11  1  1  0
 11  4  1  0
 12 11  1  0
 13  5  1  0
 14  9  1  0
 15 11  1  0
 16  3  1  0
 16  6  1  0
 16 10  2  0
 17  4  1  0
 17 13  1  0
M  END
>  <ID>  (1) 
conformer_0

$$$$
