
     RDKit          3D

 20 21  0  0  0  0  0  0  0  0999 V2000
   13.4745    0.5955   31.3468 C   0  0  0  0  0  0  0  0  0  0  0  0
   12.5993    3.2375   31.8575 C   0  0  0  0  0  0  0  0  0  0  0  0
   12.3728    3.2153   33.4537 C   0  0  0  0  0  0  0  0  0  0  0  0
   10.9096   -1.5188   33.4913 C   0  0  0  0  0  0  0  0  0  0  0  0
   12.1342    1.6418   32.4649 C   0  0  0  0  0  0  0  0  0  0  0  0
   14.0093   -0.0795   31.1713 N   0  0  0  0  0  0  0  0  0  0  0  0
   11.0306   -3.5999   32.7597 P   0  0  0  0  0  0  0  0  0  0  0  0
   11.1380   -4.0624   31.6045 O   0  0  0  0  0  0  0  0  0  0  0  0
   11.0871   -2.1562   32.8567 O   0  0  0  0  0  0  0  0  0  0  0  0
   11.9572    4.2902   33.7410 C   0  0  0  0  0  0  0  0  0  0  0  0
   10.9219    5.1668   33.5496 O   0  0  0  0  0  0  0  0  0  0  0  0
   15.1832    1.7798   29.6196 S   0  0  0  0  0  0  0  0  0  0  0  0
   14.8491    0.1237   29.8711 C   0  0  0  0  0  0  0  0  0  0  0  0
    9.9494   -3.9711   33.6815 O   0  0  0  0  0  0  0  0  0  0  0  0
   12.4796    4.9226   34.7452 N   0  0  0  0  0  0  0  0  0  0  0  0
   10.6924    0.2602   33.7562 C   0  0  0  0  0  0  0  0  0  0  0  0
   12.4784   -3.7544   33.3774 O   0  0  0  0  0  0  0  0  0  0  0  0
   11.6865    0.0936   32.6249 C   0  0  0  0  0  0  0  0  0  0  0  0
   10.8900    1.9803   33.5348 C   0  0  0  0  0  0  0  0  0  0  0  0
   14.5187    1.7807   30.5023 C   0  0  0  0  0  0  0  0  0  0  0  0
  5  2  1  0
  5  3  1  0
  6  1  1  0
  8  7  1  0
  9  4  1  0
  9  7  1  0
 10  3  1  0
 11 10  2  0
 13  6  1  0
 13 12  1  0
 14  7  1  0
 15 10  1  0
 16  4  1  0
 17  4  1  0
 18  5  1  0
 18 16  1  0
 19  5  1  0
 19 16  1  0
 20  1  1  0
 20  3  1  0
 20 12  1  0
M  END
>  <ID>  (1) 
conformer_0

$$$$
