
     RDKit          3D

 19 20  0  0  0  0  0  0  0  0999 V2000
   12.1727    2.0738   32.7744 C   0  0  0  0  0  0  0  0  0  0  0  0
   13.4276    0.5483   31.4235 C   0  0  0  0  0  0  0  0  0  0  0  0
   11.3655    2.8882   33.5138 C   0  0  0  0  0  0  0  0  0  0  0  0
   11.2305   -1.6685   33.4094 C   0  0  0  0  0  0  0  0  0  0  0  0
   13.9970   -0.4477   30.8279 N   0  0  0  0  0  0  0  0  0  0  0  0
   11.0510   -3.7499   32.9251 P   0  0  0  0  0  0  0  0  0  0  0  0
   11.6940    4.4323   33.7907 C   0  0  0  0  0  0  0  0  0  0  0  0
   13.3050    3.0068   32.0619 C   0  0  0  0  0  0  0  0  0  0  0  0
    9.8862   -3.9042   33.8715 O   0  0  0  0  0  0  0  0  0  0  0  0
   14.9416    0.3609   29.7015 C   0  0  0  0  0  0  0  0  0  0  0  0
   12.1410   -3.5095   33.0055 O   0  0  0  0  0  0  0  0  0  0  0  0
   10.9430    5.5070   32.9773 O   0  0  0  0  0  0  0  0  0  0  0  0
   15.4516    1.9613   29.6828 S   0  0  0  0  0  0  0  0  0  0  0  0
   11.7632    5.2956   34.6902 N   0  0  0  0  0  0  0  0  0  0  0  0
   10.7891   -4.5631   32.0905 O   0  0  0  0  0  0  0  0  0  0  0  0
   14.4321    1.8545   30.6886 C   0  0  0  0  0  0  0  0  0  0  0  0
   11.0410    0.9215   33.3435 C   0  0  0  0  0  0  0  0  0  0  0  0
   12.6688    0.2067   31.7860 N   0  0  0  0  0  0  0  0  0  0  0  0
   11.3701   -0.2222   32.5108 C   0  0  1  0  0  0  0  0  0  0  0  0
  3  1  2  3
  5  2  2  0
  7  3  1  0
  8  1  1  0
  9  6  1  0
 10  5  1  0
 11  4  1  0
 11  6  1  0
 12  7  2  0
 13 10  1  0
 14  7  1  0
 15  6  1  0
 16  2  1  0
 16 10  2  0
 16 13  1  0
 17  1  1  0
 18  2  1  0
 19  4  1  1
 19 17  1  0
 19 18  1  0
M  END
>  <ID>  (1) 
conformer_0

$$$$
