
     RDKit          3D

 19 20  0  0  0  0  0  0  0  0999 V2000
   10.9088    0.4783   33.5821 C   0  0  0  0  0  0  0  0  0  0  0  0
   12.4768    1.8215   32.4180 C   0  0  0  0  0  0  0  0  0  0  0  0
   11.0159   -1.3660   33.1973 C   0  0  0  0  0  0  0  0  0  0  0  0
   13.7935    1.9885   31.2104 C   0  0  0  0  0  0  0  0  0  0  0  0
   11.3315   -3.6465   32.6413 P   0  0  0  0  0  0  0  0  0  0  0  0
   11.1022   -4.1944   31.5563 O   0  0  0  0  0  0  0  0  0  0  0  0
   13.7676    3.4321   31.8356 C   0  0  0  0  0  0  0  0  0  0  0  0
   12.6903   -3.9348   33.3367 O   0  0  0  0  0  0  0  0  0  0  0  0
   12.3434    4.2854   33.3206 C   0  0  0  0  0  0  0  0  0  0  0  0
   13.7219    0.2641   31.0087 N   0  0  0  0  0  0  0  0  0  0  0  0
   10.2813   -4.3183   33.5819 O   0  0  0  0  0  0  0  0  0  0  0  0
   15.1614    1.7400   29.7575 S   0  0  0  0  0  0  0  0  0  0  0  0
   11.6512    5.2728   33.0488 O   0  0  0  0  0  0  0  0  0  0  0  0
   10.7083    1.9633   33.2368 C   0  0  0  0  0  0  0  0  0  0  0  0
   11.5202   -2.1189   32.5378 O   0  0  0  0  0  0  0  0  0  0  0  0
   11.9931    0.3098   32.5414 C   0  0  0  0  0  0  0  0  0  0  0  0
   12.5542    3.4099   32.7655 C   0  0  0  0  0  0  0  0  0  0  0  0
   11.1002    2.7721   34.5453 C   0  0  0  0  0  0  0  0  0  0  0  0
   14.6505    0.9185   30.1183 C   0  0  0  0  0  0  0  0  0  0  0  0
  3  1  1  0
  6  5  1  0
  7  4  1  0
  8  3  1  0
 10  4  1  0
 11  5  1  0
 12  4  1  0
 13  9  2  0
 14  1  1  0
 14  2  1  0
 15  3  1  0
 15  5  1  0
 16  1  1  0
 16  2  1  0
 17  2  1  0
 17  7  1  0
 17  9  1  0
 18 14  1  0
 19 10  2  0
 19 12  1  0
M  END
>  <ID>  (1) 
conformer_0

$$$$
