
     RDKit          3D

 17 19  0  0  0  0  0  0  0  0999 V2000
   10.8624    2.4514   33.2892 C   0  0  2  0  0  0  0  0  0  0  0  0
   14.5284    0.5503   30.3318 C   0  0  0  0  0  0  0  0  0  0  0  0
   13.2136    3.2141   31.9874 C   0  0  0  0  0  0  0  0  0  0  0  0
   10.9023   -1.6701   33.1233 C   0  0  0  0  0  0  0  0  0  0  0  0
   10.7607   -4.6153   32.2598 O   0  0  0  0  0  0  0  0  0  0  0  0
   12.2188    2.3830   32.6676 C   0  0  0  0  0  0  0  0  0  0  0  0
   11.0760   -3.7215   32.6861 P   0  0  1  0  0  4  0  0  0  0  0  0
   11.9321    5.0837   33.3163 O   0  0  0  0  0  0  0  0  0  0  0  0
   12.1804   -3.4767   33.1405 O   0  0  0  0  0  1  0  0  0  0  0  0
   11.1137    3.9761   33.7930 C   0  0  0  0  0  0  0  0  0  0  0  0
   15.2216    1.8132   29.8817 S   0  0  0  0  0  0  0  0  0  0  0  0
   13.9299   -0.3478   30.9028 N   0  0  0  0  0  0  0  0  0  0  0  0
   13.8919    1.5204   31.2727 C   0  0  0  0  0  0  0  0  0  0  0  0
   11.0948    0.4640   33.2746 C   0  0  0  0  0  0  0  0  0  0  0  0
   12.0038   -0.0953   32.4320 C   0  0  0  0  0  0  0  0  0  0  0  0
   13.2443    0.5531   31.6860 N   0  0  0  0  0  0  0  0  0  0  0  0
   12.9475    4.5646   32.5674 C   0  0  0  0  0  0  0  0  0  0  0  0
  6  1  1  0
  6  3  1  0
  7  4  1  0
  7  5  1  6
  9  7  1  0
 10  1  1  0
 10  8  1  0
 11  2  1  0
 12  2  1  0
 13  2  2  0
 13 11  1  0
  1 14  1  1
 15  4  2  3
 15 14  1  0
 16 12  1  0
 16 13  1  0
 16 15  1  0
 17  3  1  0
 17  8  1  0
M  RAD  2   7   2   9   2
M  END
>  <ID>  (1) 
conformer_0

$$$$
