
     RDKit          3D

 14 13  0  0  0  0  0  0  0  0999 V2000
   11.5976    2.7333   33.1587 C   0  0  0  0  0  0  0  0  0  0  0  0
   10.9430   -1.2600   33.2930 C   0  0  0  0  0  0  0  0  0  0  0  0
   12.9124    2.7878   32.3206 C   0  0  0  0  0  0  0  0  0  0  0  0
   14.2375    0.8856   30.7471 C   0  0  0  0  0  0  0  0  0  0  0  0
   15.3461    1.9396   29.8790 S   0  0  0  0  0  0  0  0  0  0  0  0
   11.0815   -3.6668   32.8088 P   0  0  0  0  0  0  0  0  0  0  0  0
   11.1709   -4.0802   31.6284 O   0  0  0  0  0  0  0  0  0  0  0  0
   14.2001   -0.3227   30.8015 N   0  0  0  0  0  0  0  0  0  0  0  0
   12.7117   -3.8004   33.4235 O   0  0  0  0  0  0  0  0  0  0  0  0
   10.2031   -4.3320   33.7460 O   0  0  0  0  0  0  0  0  0  0  0  0
   11.8365    4.2619   33.3968 C   0  0  0  0  0  0  0  0  0  0  0  0
   10.9650    1.5761   33.5132 C   0  0  0  0  0  0  0  0  0  0  0  0
   11.8604    0.3917   32.6213 C   0  0  0  0  0  0  0  0  0  0  0  0
   11.0607   -2.3631   32.9635 O   0  0  0  0  0  0  0  0  0  0  0  0
  3  1  1  0
  4  3  1  0
  5  4  2  0
  7  6  1  0
  8  4  1  0
  9  2  1  0
 10  6  1  0
 11  1  1  0
 12  1  1  0
 13  2  1  0
 13 12  1  0
 14  2  1  0
 14  6  1  0
M  END
>  <ID>  (1) 
conformer_0

$$$$
