
     RDKit          3D

 18 20  0  0  0  0  0  0  0  0999 V2000
   12.5734    3.0761   33.1253 C   0  0  0  0  0  0  0  0  0  0  0  0
   13.5572    2.2826   32.1810 C   0  0  0  0  0  0  0  0  0  0  0  0
   14.8920    0.5936   29.9505 C   0  0  0  0  0  0  0  0  0  0  0  0
   11.0047   -1.4746   32.8708 C   0  0  0  0  0  0  0  0  0  0  0  0
   14.3278   -0.4043   30.5449 N   0  0  0  0  0  0  0  0  0  0  0  0
   10.7242    2.1399   33.7820 C   0  0  0  0  0  0  0  0  0  0  0  0
   11.1850   -3.6317   32.7426 P   0  0  0  0  0  0  0  0  0  0  0  0
   10.9887   -4.5378   31.9319 O   0  0  0  0  0  0  0  0  0  0  0  0
   12.4221   -3.4663   33.1412 O   0  0  0  0  0  0  0  0  0  0  0  0
   11.7752    4.0572   33.3570 C   0  0  0  0  0  0  0  0  0  0  0  0
   15.2687    1.6858   29.7797 S   0  0  0  0  0  0  0  0  0  0  0  0
   10.5505    0.1905   33.7319 C   0  0  0  0  0  0  0  0  0  0  0  0
   10.2102   -4.1379   33.7803 O   0  0  0  0  0  0  0  0  0  0  0  0
   11.8565    4.9676   34.1733 N   0  0  0  0  0  0  0  0  0  0  0  0
   14.0030    1.1753   31.1325 C   0  0  0  0  0  0  0  0  0  0  0  0
   12.1950    0.1060   32.4098 C   0  0  0  0  0  0  0  0  0  0  0  0
   11.7446    1.3947   32.7911 C   0  0  0  0  0  0  0  0  0  0  0  0
   12.9839   -0.5554   31.7574 N   0  0  0  0  0  0  0  0  0  0  0  0
  2  1  1  0
  5  3  1  0
  8  7  1  0
  9  4  1  0
  9  7  1  0
 10  1  1  0
 11  3  2  0
 12  4  1  0
 12  6  1  0
 13  7  1  0
 14 10  1  0
 15  2  1  0
 15  3  1  0
 15  5  1  0
 17  1  1  0
 17  6  1  0
 17 12  1  0
 17 16  1  0
 18  5  1  0
 18 16  2  0
M  END
>  <ID>  (1) 
conformer_0

$$$$
