
     RDKit          3D

 14 15  0  0  0  0  0  0  0  0999 V2000
   11.1508    0.9428   33.1852 C   0  0  0  0  0  0  0  0  0  0  0  0
   13.9280    1.2701   31.1918 C   0  0  2  0  0  0  0  0  0  0  0  0
   12.2986    2.8719   33.0134 C   0  0  0  0  0  0  0  0  0  0  0  0
   11.2915   -0.7071   32.6294 C   0  0  0  0  0  0  0  0  0  0  0  0
   13.6572   -0.2201   31.1566 N   0  0  0  0  0  0  0  0  0  0  0  0
   11.0929   -3.5241   32.8176 P   0  0  0  0  0  0  0  0  0  0  0  0
   13.3085    2.7079   32.2164 C   0  0  0  0  0  0  0  0  0  0  0  0
   15.2156    1.8818   29.7507 S   0  0  0  0  0  0  0  0  0  0  0  0
   10.8613   -4.3698   31.9731 O   0  0  0  0  0  0  0  0  0  0  0  0
   12.1091   -3.1184   33.1686 O   0  0  0  0  0  0  0  0  0  0  0  0
   11.6113    4.2539   33.9434 C   0  0  0  0  0  0  0  0  0  0  0  0
   14.7290    0.5198   30.1361 C   0  0  0  0  0  0  0  0  0  0  0  0
    9.9561   -3.7925   33.7151 O   0  0  0  0  0  0  0  0  0  0  0  0
   10.8969    2.2926   33.7609 C   0  0  0  0  0  0  0  0  0  0  0  0
  4  1  1  0
  5  2  1  0
  7  2  1  0
  7  3  2  3
  2  8  1  6
  9  6  1  0
 10  4  1  0
 10  6  1  0
 11  3  1  0
 12  2  1  0
 12  5  2  0
 12  8  1  0
 13  6  1  0
 14  1  1  0
 14  3  1  0
M  END
>  <ID>  (1) 
conformer_0

$$$$
