
     RDKit          3D

 14 14  0  0  0  0  0  0  0  0999 V2000
   11.3787    2.3022   33.3090 C   0  0  0  0  0  0  0  0  0  0  0  0
   11.0052    1.0413   33.4070 C   0  0  0  0  0  0  0  0  0  0  0  0
   13.8272    0.9465   31.2315 C   0  0  0  0  0  0  0  0  0  0  0  0
   11.4593   -1.1309   33.0742 C   0  0  0  0  0  0  0  0  0  0  0  0
   13.9478   -0.1883   30.8709 N   0  0  0  0  0  0  0  0  0  0  0  0
   10.9279   -4.1174   31.3758 O   0  0  0  0  0  0  0  0  0  0  0  0
   11.2195   -3.7434   32.6155 P   0  0  0  0  0  0  0  0  0  0  0  0
   11.3090    4.9877   33.7555 O   0  0  0  0  0  0  0  0  0  0  0  0
   12.3322   -3.5542   32.9718 O   0  0  0  0  0  0  0  0  0  0  0  0
   12.7561    2.5855   32.6732 C   0  0  0  0  0  0  0  0  0  0  0  0
   11.7957    4.1436   33.6197 C   0  0  0  0  0  0  0  0  0  0  0  0
   14.8030    0.7610   30.1286 C   0  0  0  0  0  0  0  0  0  0  0  0
   15.2975    1.7133   29.7718 S   0  0  0  0  0  0  0  0  0  0  0  0
   10.4229   -4.5152   33.2440 O   0  0  0  0  0  0  0  0  0  0  0  0
  2  1  1  0
  4  2  1  0
  5  3  2  0
  7  6  1  0
  9  4  1  0
  9  7  1  0
 10  1  1  0
 10  3  1  0
 11  1  1  0
 11  8  2  0
 12  3  1  0
 12  5  1  0
 13 12  2  0
 14  7  1  0
M  END
>  <ID>  (1) 
conformer_0

$$$$
