
     RDKit          3D

 16 16  0  0  0  0  0  0  0  0999 V2000
   12.5907    2.4069   32.8162 C   0  0  1  0  0  0  0  0  0  0  0  0
   13.1980    3.0855   32.1635 C   0  0  0  0  0  0  0  0  0  0  0  0
   11.6921   -0.0426   32.5087 C   0  0  0  0  0  0  0  0  0  0  0  0
   13.6575    1.1420   31.5901 C   0  0  0  0  0  0  0  0  0  0  0  0
   11.3047   -3.7044   32.6619 P   0  0  0  0  0  0  0  0  0  0  0  0
   11.2077   -4.3222   31.6942 O   0  0  0  0  0  0  0  0  0  0  0  0
   12.7758   -3.9602   33.5619 O   0  0  0  0  0  0  0  0  0  0  0  0
   11.4982    4.4127   33.7172 C   0  0  0  0  0  0  0  0  0  0  0  0
   14.0967   -0.0286   30.8406 N   0  0  0  0  0  0  0  0  0  0  0  0
   11.7047    5.1795   33.5292 O   0  0  0  0  0  0  0  0  0  0  0  0
   11.2743    1.1429   33.1565 C   0  0  2  0  0  0  0  0  0  0  0  0
   10.0596   -3.9344   33.5974 O   0  0  0  0  0  0  0  0  0  0  0  0
   11.0203    2.7384   33.1424 C   0  0  2  0  0  0  0  0  0  0  0  0
   11.6401   -2.4197   32.6681 O   0  0  0  0  0  0  0  0  0  0  0  0
   14.6448    0.8410   30.1877 C   0  0  0  0  0  0  0  0  0  0  0  0
   11.1150   -1.4287   33.0414 C   0  0  2  0  0  0  0  0  0  0  0  0
  1  2  1  6
  4  1  1  0
  6  5  1  0
  9  4  1  0
 10  8  2  0
 11  1  1  0
 11  3  1  6
 12  5  1  0
 13  1  1  0
 13  8  1  1
 13 11  1  0
 14  5  1  0
 15  9  2  3
 16  3  1  0
 16  7  1  1
 16 14  1  0
M  END
>  <ID>  (1) 
conformer_0

$$$$
