
     RDKit          3D

 16 15  0  0  0  0  0  0  0  0999 V2000
   13.3819    2.4508   32.6341 C   0  0  0  0  0  0  0  0  0  0  0  0
   13.7208    0.2987   31.1261 C   0  0  0  0  0  0  0  0  0  0  0  0
   12.4046    3.1945   32.6428 C   0  0  1  0  0  0  0  0  0  0  0  0
   10.7176    2.6283   33.5777 C   0  0  0  0  0  0  0  0  0  0  0  0
   10.8888   -4.5267   31.9632 O   0  0  0  0  0  0  0  0  0  0  0  0
   11.0868   -3.7110   32.9054 P   0  0  0  0  0  0  0  0  0  0  0  0
   11.6965    4.3897   33.5809 C   0  0  0  0  0  0  0  0  0  0  0  0
   12.0957   -3.1584   33.2019 O   0  0  0  0  0  0  0  0  0  0  0  0
   11.8395    5.7572   32.9184 O   0  0  0  0  0  0  0  0  0  0  0  0
   11.6818   -0.8521   32.6985 C   0  0  0  0  0  0  0  0  0  0  0  0
   10.0552   -3.9051   34.1037 O   0  0  0  0  0  0  0  0  0  0  0  0
   14.4716    1.1127   30.5144 C   0  0  0  0  0  0  0  0  0  0  0  0
   10.4847    0.6205   33.8254 C   0  0  0  0  0  0  0  0  0  0  0  0
   14.2650   -0.4684   30.6834 N   0  0  0  0  0  0  0  0  0  0  0  0
   11.2720    5.0506   34.4593 N   0  0  0  0  0  0  0  0  0  0  0  0
   11.4544    1.2987   32.7602 C   0  0  1  0  0  0  0  0  0  0  0  0
  2  1  1  0
  3  1  1  1
  4  3  1  0
  6  5  1  0
  7  3  1  0
  8  6  1  0
  9  7  2  0
 10  8  1  0
 11  6  1  0
 12  2  1  0
 14  2  2  3
 15  7  1  0
 16  4  1  0
 16 10  1  0
 16 13  1  6
M  END
>  <ID>  (1) 
conformer_0

$$$$
