
     RDKit          3D

 16 15  0  0  0  0  0  0  0  0999 V2000
   10.8815    1.0127   33.2632 C   0  0  0  0  0  0  0  0  0  0  0  0
   12.5768    2.0907   32.4495 C   0  0  0  0  0  0  0  0  0  0  0  0
   11.7662   -0.0554   32.6901 C   0  0  0  0  0  0  0  0  0  0  0  0
   13.6574    0.7119   31.3791 C   0  0  0  0  0  0  0  0  0  0  0  0
   14.4464    0.0403   30.3903 N   0  0  0  0  0  0  0  0  0  0  0  0
   13.4566    2.9347   32.4913 C   0  0  0  0  0  0  0  0  0  0  0  0
   11.3396   -3.7230   32.6166 P   0  0  1  0  0  4  0  0  0  0  0  0
   11.5584    4.1721   33.6264 C   0  0  0  0  0  0  0  0  0  0  0  0
   10.7593   -4.5502   32.3911 O   0  0  0  0  0  0  0  0  0  0  0  0
   12.6797   -3.8539   32.9512 O   0  0  0  0  0  1  0  0  0  0  0  0
   10.6187    2.3185   33.9231 C   0  0  0  0  0  0  0  0  0  0  0  0
   14.7131    1.1362   29.9827 C   0  0  0  0  0  0  0  0  0  0  0  0
   11.6263    5.1893   34.2778 N   0  0  0  0  0  0  0  0  0  0  0  0
   11.4686   -1.5248   32.9091 C   0  0  0  0  0  0  0  0  0  0  0  0
   11.0658    3.1463   32.6804 C   0  0  2  0  0  0  0  0  0  0  0  0
   11.4073   -2.5368   32.6147 O   0  0  0  0  0  0  0  0  0  0  0  0
  3  1  1  0
  4  2  1  0
  5  4  1  0
  6  2  2  3
  7  9  1  6
 10  7  1  0
 11  1  1  0
 12  5  2  3
 13  8  1  0
 14  3  1  0
 15  2  1  0
 15  8  1  1
 15 11  1  0
 16  7  1  0
 16 14  1  0
M  RAD  2   7   2  10   2
M  END
>  <ID>  (1) 
conformer_0

$$$$
