
     RDKit          3D

 16 16  0  0  0  0  0  0  0  0999 V2000
   11.2446    1.0378   33.0442 C   0  0  0  0  0  0  0  0  0  0  0  0
   13.8979    1.5356   31.1783 C   0  0  0  0  0  0  0  0  0  0  0  0
   12.3738    2.6728   32.9705 C   0  0  0  0  0  0  0  0  0  0  0  0
   11.6497   -0.8973   32.7466 C   0  0  0  0  0  0  0  0  0  0  0  0
   13.9721   -0.1920   30.9350 N   0  0  0  0  0  0  0  0  0  0  0  0
   11.0524   -3.7396   32.8726 P   0  0  0  0  0  0  0  0  0  0  0  0
   12.2633   -3.5288   33.2615 O   0  0  0  0  0  0  0  0  0  0  0  0
   10.9247   -4.4347   31.8558 O   0  0  0  0  0  0  0  0  0  0  0  0
   10.6200    2.5245   33.7118 C   0  0  0  0  0  0  0  0  0  0  0  0
   11.3355    4.3069   34.0208 C   0  0  0  0  0  0  0  0  0  0  0  0
    9.9192   -4.0011   33.8835 O   0  0  0  0  0  0  0  0  0  0  0  0
   14.6986    0.6334   30.1780 C   0  0  0  0  0  0  0  0  0  0  0  0
   15.3495    1.7292   29.7273 S   0  0  0  0  0  0  0  0  0  0  0  0
   12.0748    5.2177   34.5400 N   0  0  0  0  0  0  0  0  0  0  0  0
   10.5394    5.1099   33.8997 O   0  0  0  0  0  0  0  0  0  0  0  0
   13.4951    3.1701   31.9579 C   0  0  0  0  0  0  0  0  0  0  0  0
  4  1  3  0
  5  2  2  0
  7  4  1  0
  7  6  1  0
  8  6  1  0
  9  1  1  0
  9  3  1  0
 10  9  1  0
 11  6  1  0
 12  2  1  0
 12  5  1  0
 13 12  2  0
 14 10  1  0
 15 10  2  0
 16  2  1  0
 16  3  1  0
M  END
>  <ID>  (1) 
conformer_0

$$$$
