
     RDKit          3D

 16 16  0  0  0  0  0  0  0  0999 V2000
   10.7875    2.6854   33.3623 C   0  0  0  0  0  0  0  0  0  0  0  0
   14.2246    0.5335   30.7281 C   0  0  0  0  0  0  0  0  0  0  0  0
   12.8936    3.1825   32.0900 C   0  0  0  0  0  0  0  0  0  0  0  0
   11.1672   -1.1508   32.8076 C   0  0  0  0  0  0  0  0  0  0  0  0
   11.1805   -3.5869   32.8012 P   0  0  0  0  0  0  0  0  0  0  0  0
   11.0138   -4.2480   31.7430 O   0  0  0  0  0  0  0  0  0  0  0  0
   15.2046    1.4259   29.7714 S   0  0  0  0  0  0  0  0  0  0  0  0
   11.9378    1.8941   32.8159 C   0  0  0  0  0  0  0  0  0  0  0  0
   11.6835    5.7393   32.6818 O   0  0  0  0  0  0  0  0  0  0  0  0
   11.9207    4.4751   33.0917 C   0  0  0  0  0  0  0  0  0  0  0  0
   12.2496   -3.2408   33.2961 O   0  0  0  0  0  0  0  0  0  0  0  0
   14.0885   -0.8663   30.7706 N   0  0  0  0  0  0  0  0  0  0  0  0
   12.3274    4.8902   34.0747 N   0  0  0  0  0  0  0  0  0  0  0  0
   10.1330   -4.0306   33.7394 O   0  0  0  0  0  0  0  0  0  0  0  0
   10.8625    0.5410   33.3995 C   0  0  0  0  0  0  0  0  0  0  0  0
   12.3828    0.5299   32.4081 C   0  0  0  0  0  0  0  0  0  0  0  0
  6  5  1  0
  7  2  2  0
  8  1  1  0
  8  3  1  0
 10  3  1  0
 10  9  1  0
 11  4  1  0
 11  5  1  0
 12  2  1  0
 13 10  1  0
 14  5  1  0
 15  4  1  0
 15  8  1  0
 16  2  1  0
 16  8  1  0
 16 15  1  0
M  END
>  <ID>  (1) 
conformer_0

$$$$
