
     RDKit          3D

 18 19  0  0  0  0  0  0  0  0999 V2000
   12.3316    2.3252   32.7121 C   0  0  0  0  0  0  0  0  0  0  0  0
   13.6645    0.1712   31.2025 C   0  0  0  0  0  0  0  0  0  0  0  0
   13.2190    3.1946   32.3154 C   0  0  0  0  0  0  0  0  0  0  0  0
   11.2022   -0.7582   33.0602 C   0  0  0  0  0  0  0  0  0  0  0  0
   11.0929   -3.6936   32.8526 P   0  0  0  0  0  0  0  0  0  0  0  0
   13.9753   -0.5025   30.7408 N   0  0  0  0  0  0  0  0  0  0  0  0
   10.9285   -4.6998   32.0777 O   0  0  0  0  0  0  0  0  0  0  0  0
   12.5966   -3.7598   33.6144 O   0  0  0  0  0  0  0  0  0  0  0  0
   11.3061    4.0334   33.5810 C   0  0  0  0  0  0  0  0  0  0  0  0
   15.6008    2.2051   29.7738 S   0  0  0  0  0  0  0  0  0  0  0  0
   10.7802    2.4290   33.1281 C   0  0  0  0  0  0  0  0  0  0  0  0
   14.9715    0.5085   29.6744 C   0  0  0  0  0  0  0  0  0  0  0  0
    9.9105   -3.8377   33.9919 O   0  0  0  0  0  0  0  0  0  0  0  0
   11.0003    4.5917   34.1505 O   0  0  0  0  0  0  0  0  0  0  0  0
   12.3848    5.5439   33.6637 N   0  0  0  0  0  0  0  0  0  0  0  0
   14.2826    1.8239   30.7815 C   0  0  0  0  0  0  0  0  0  0  0  0
   10.7888    0.8927   33.7263 C   0  0  0  0  0  0  0  0  0  0  0  0
   11.1512   -2.5979   32.6102 O   0  0  0  0  0  0  0  0  0  0  0  0
  3  1  1  0
  6  2  2  0
  7  5  1  0
  8  4  2  0
 11  1  1  0
 11  9  1  0
 12  6  1  0
 12 10  1  0
 13  5  1  0
 14  9  1  0
 15 14  1  0
 16  2  1  0
 16  3  1  0
 16 10  1  0
 16 12  1  0
 17  4  1  0
 17 11  1  0
 18  4  1  0
 18  5  1  0
M  END
>  <ID>  (1) 
conformer_0

$$$$
