
     RDKit          3D

 15 14  0  0  0  0  0  0  0  0999 V2000
   10.7237    0.8039   33.2806 C   0  0  0  0  0  0  0  0  0  0  0  0
   12.3181    2.8004   32.9951 C   0  0  1  0  0  0  0  0  0  0  0  0
   11.4264   -0.7313   32.8347 C   0  0  1  0  0  0  0  0  0  0  0  0
   13.6549    0.4332   31.5066 C   0  0  0  0  0  0  0  0  0  0  0  0
   11.0629   -3.5889   32.8126 P   0  0  0  0  0  0  0  0  0  0  0  0
   14.1038   -0.0667   30.7603 N   0  0  0  0  0  0  0  0  0  0  0  0
   10.0299   -3.9572   33.8603 O   0  0  0  0  0  0  0  0  0  0  0  0
   12.5355   -4.0058   33.2819 O   0  0  0  0  0  0  0  0  0  0  0  0
   13.3007    2.5954   32.3573 C   0  0  0  0  0  0  0  0  0  0  0  0
   15.4007    1.9168   29.9591 S   0  0  0  0  0  0  0  0  0  0  0  0
   12.0095    4.2637   33.5429 C   0  0  0  0  0  0  0  0  0  0  0  0
   10.8400   -4.1110   31.6664 O   0  0  0  0  0  0  0  0  0  0  0  0
   11.3279   -2.1937   32.8322 O   0  0  0  0  0  0  0  0  0  0  0  0
   10.7516    2.1119   33.3272 C   0  0  0  0  0  0  0  0  0  0  0  0
   14.6850    1.2585   30.1341 C   0  0  0  0  0  0  0  0  0  0  0  0
  3  1  1  0
  6  4  2  3
  7  5  1  0
  3  8  1  1
  9  2  1  0
  9  4  1  0
  2 11  1  6
 12  5  1  0
 13  3  1  0
 13  5  1  0
 14  1  1  0
 14  2  1  0
 15  6  1  0
 15 10  2  0
M  END
>  <ID>  (1) 
conformer_0

$$$$
