
     RDKit          3D

 18 19  0  0  0  0  0  0  0  0999 V2000
   13.2976    2.8753   31.7604 C   0  0  0  0  0  0  0  0  0  0  0  0
   11.3270    3.0419   31.8172 C   0  0  0  0  0  0  0  0  0  0  0  0
   10.8300   -1.2995   33.2480 C   0  0  0  0  0  0  0  0  0  0  0  0
   11.1795   -3.6018   32.7069 P   0  0  0  0  0  0  0  0  0  0  0  0
   10.8375   -4.4502   31.8081 O   0  0  0  0  0  0  0  0  0  0  0  0
   13.7246   -0.0864   31.1592 N   0  0  0  0  0  0  0  0  0  0  0  0
   12.6121   -3.9238   33.3182 O   0  0  0  0  0  0  0  0  0  0  0  0
   14.1843    0.8786   30.7685 C   0  0  0  0  0  0  0  0  0  0  0  0
   12.0275    4.2537   33.3896 C   0  0  0  0  0  0  0  0  0  0  0  0
   12.5897    2.8354   33.2148 C   0  0  0  0  0  0  0  0  0  0  0  0
   15.1811    1.4927   30.0413 S   0  0  0  0  0  0  0  0  0  0  0  0
   12.3025    5.2078   34.5120 N   0  0  0  0  0  0  0  0  0  0  0  0
   10.0588   -3.8731   33.6539 O   0  0  0  0  0  0  0  0  0  0  0  0
   11.2721    5.2420   33.1117 O   0  0  0  0  0  0  0  0  0  0  0  0
   11.3562   -2.3383   32.6958 O   0  0  0  0  0  0  0  0  0  0  0  0
   10.7908    2.0951   33.1105 C   0  0  0  0  0  0  0  0  0  0  0  0
   11.2269    0.6558   33.2809 C   0  0  0  0  0  0  0  0  0  0  0  0
   11.6778   -0.0207   32.6238 C   0  0  0  0  0  0  0  0  0  0  0  0
  5  4  1  0
  7  3  1  0
  8  1  1  0
  8  6  1  0
 10  1  1  0
 10  2  1  0
 10  9  1  0
 11  8  2  0
 12  9  1  0
 13  4  1  0
 14  9  1  0
 14 12  1  0
 15  3  1  0
 15  4  1  0
 16  2  1  0
 16 10  1  0
 17 16  1  0
 18  3  1  0
 18 17  1  0
M  END
>  <ID>  (1) 
conformer_0

$$$$
