
     RDKit          3D

 15 15  0  0  0  0  0  0  0  0999 V2000
   12.9967    2.2100   32.3313 C   0  0  0  0  0  0  0  0  0  0  0  0
   12.3800    2.9247   33.0121 C   0  0  0  0  0  0  0  0  0  0  0  0
   14.7469    0.5730   30.0937 C   0  0  0  0  0  0  0  0  0  0  0  0
   11.3139   -0.8310   32.9267 C   0  0  0  0  0  0  0  0  0  0  0  0
   11.1729   -3.5947   32.7716 P   0  0  0  0  0  0  0  0  0  0  0  0
   14.3554   -0.3032   30.5288 N   0  0  0  0  0  0  0  0  0  0  0  0
   11.1993   -4.0845   31.6507 O   0  0  0  0  0  0  0  0  0  0  0  0
   12.2924   -3.3177   33.1462 O   0  0  0  0  0  0  0  0  0  0  0  0
   11.0772    0.9303   33.2366 C   0  0  0  0  0  0  0  0  0  0  0  0
   11.7981    4.3359   33.8149 C   0  0  0  0  0  0  0  0  0  0  0  0
   10.1138   -4.0587   33.6731 O   0  0  0  0  0  0  0  0  0  0  0  0
   14.7487    1.9127   29.8031 S   0  0  0  0  0  0  0  0  0  0  0  0
   13.8704    1.2167   31.2253 C   0  0  0  0  0  0  0  0  0  0  0  0
   10.6308    2.3764   33.6671 C   0  0  0  0  0  0  0  0  0  0  0  0
   12.3373    5.2801   34.5919 N   0  0  0  0  0  0  0  0  0  0  0  0
  2  1  2  0
  6  3  2  3
  7  5  1  0
  8  4  1  0
  8  5  1  0
  9  4  3  0
 10  2  1  0
 11  5  1  0
 12  3  1  0
 13  1  2  0
 13  3  1  0
 13 12  1  0
 14  2  1  0
 14  9  1  0
 15 10  1  0
M  END
>  <ID>  (1) 
conformer_0

$$$$
