
     RDKit          3D

 19 19  0  0  0  0  0  0  0  0999 V2000
   12.4259    3.3391   32.9369 C   0  0  0  0  0  0  0  0  0  0  0  0
   13.6393    3.3647   32.0592 C   0  0  0  0  0  0  0  0  0  0  0  0
   13.7747    1.2314   31.3138 C   0  0  0  0  0  0  0  0  0  0  0  0
   10.9978    0.1462   33.4541 C   0  0  0  0  0  0  0  0  0  0  0  0
   11.2706   -1.0453   32.9370 C   0  0  0  0  0  0  0  0  0  0  0  0
   11.2884   -3.6601   32.6869 P   0  0  0  0  0  0  0  0  0  0  0  0
   11.7736    4.5118   33.1918 C   0  0  0  0  0  0  0  0  0  0  0  0
   13.1692   -0.2054   31.6707 N   0  0  0  0  0  0  0  0  0  0  0  0
   12.8942   -3.9015   33.3989 O   0  0  0  0  0  0  0  0  0  0  0  0
   11.2320   -4.0296   31.5406 O   0  0  0  0  0  0  0  0  0  0  0  0
   10.9622    5.4442   33.4184 O   0  0  0  0  0  0  0  0  0  0  0  0
   10.2436   -4.1911   33.6409 O   0  0  0  0  0  0  0  0  0  0  0  0
   12.2162    1.5772   32.5439 C   0  0  0  0  0  0  0  0  0  0  0  0
   15.1073    1.7550   29.8679 S   0  0  0  0  0  0  0  0  0  0  0  0
   14.7666    0.7006   30.2125 C   0  0  0  0  0  0  0  0  0  0  0  0
   10.8567    2.6672   33.4198 C   0  0  0  0  0  0  0  0  0  0  0  0
   11.4428   -2.3764   32.9105 O   0  0  0  0  0  0  0  0  0  0  0  0
   10.4298    1.3004   34.1582 C   0  0  0  0  0  0  0  0  0  0  0  0
   14.5816   -0.3852   30.2064 N   0  0  0  0  0  0  0  0  0  0  0  0
  2  1  1  0
  5  4  1  0
  7  1  1  0
  8  3  1  0
  9  5  1  0
 10  6  1  0
 11  7  1  0
 12  6  1  0
 13  1  1  0
 13  3  1  0
 15  3  1  0
 15 14  2  0
 16  1  1  0
 16 13  1  0
 17  5  1  0
 17  6  1  0
 18  4  1  0
 18 16  1  0
 19 15  1  0
M  END
>  <ID>  (1) 
conformer_0

$$$$
