
     RDKit          3D

 17 17  0  0  0  0  0  0  0  0999 V2000
   11.4915    0.8049   33.2144 C   0  0  0  0  0  0  0  0  0  0  0  0
   12.5663    2.8148   33.1513 C   0  0  0  0  0  0  0  0  0  0  0  0
   13.6285    1.0057   31.6168 C   0  0  0  0  0  0  0  0  0  0  0  0
   11.3064   -0.7241   32.8766 C   0  0  0  0  0  0  0  0  0  0  0  0
   11.1290   -3.6610   32.6764 P   0  0  0  0  0  0  0  0  0  0  0  0
   10.8816    1.7790   33.2911 C   0  0  0  0  0  0  0  0  0  0  0  0
   10.7880   -4.3800   31.6035 O   0  0  0  0  0  0  0  0  0  0  0  0
   11.5203    4.1138   33.6070 C   0  0  1  0  0  0  0  0  0  0  0  0
   11.1617   -2.2158   32.6368 O   0  0  0  0  0  0  0  0  0  0  0  0
   14.1583    0.0269   30.7912 N   0  0  0  0  0  0  0  0  0  0  0  0
   10.2072   -4.1704   33.8210 O   0  0  0  0  0  0  0  0  0  0  0  0
   11.7166    5.1476   34.4546 N   0  0  0  0  0  0  0  0  0  0  0  0
   10.5472    3.5625   32.6566 C   0  0  0  0  0  0  0  0  0  0  0  0
   14.8282    0.2039   29.8234 C   0  0  0  0  0  0  0  0  0  0  0  0
   12.5101   -3.6715   33.1308 O   0  0  0  0  0  0  0  0  0  0  0  0
   13.2289    2.3855   32.2489 C   0  0  0  0  0  0  0  0  0  0  0  0
   14.7779    2.0279   30.4249 C   0  0  0  0  0  0  0  0  0  0  0  0
  4  1  1  0
  6  1  1  0
  7  5  1  0
  8  2  1  0
  9  4  1  0
  9  5  1  0
 10  3  1  0
 11  5  1  0
  8 12  1  6
 13  6  1  0
 13  8  1  0
 14 10  2  0
 15  4  2  0
 16  2  1  0
 16  3  2  3
 17  3  1  0
 17 14  1  0
M  END
>  <ID>  (1) 
conformer_0

$$$$
