
     RDKit          3D

 16 15  0  0  0  0  0  0  0  0999 V2000
   10.8752    2.6822   33.3762 C   0  0  0  0  0  0  0  0  0  0  0  0
   13.1048    2.6824   32.7303 C   0  0  0  0  0  0  0  0  0  0  0  0
   11.5944    1.6665   33.1012 C   0  0  1  0  0  0  0  0  0  0  0  0
   11.3929   -1.1538   33.0444 C   0  0  0  0  0  0  0  0  0  0  0  0
   11.2647   -3.7017   32.6891 P   0  0  0  0  0  0  0  0  0  0  0  0
   11.1262   -4.1162   31.5747 O   0  0  0  0  0  0  0  0  0  0  0  0
   12.5651   -3.6795   33.2387 O   0  0  0  0  0  0  0  0  0  0  0  0
   13.7170   -0.0659   30.9640 N   0  0  0  0  0  0  0  0  0  0  0  0
   14.0889    0.7745   30.6404 C   0  0  0  0  0  0  0  0  0  0  0  0
   11.3486    5.4869   32.9319 O   0  0  0  0  0  0  0  0  0  0  0  0
   11.7884    4.3102   33.7207 C   0  0  0  0  0  0  0  0  0  0  0  0
   15.1405    1.1907   29.7655 S   0  0  0  0  0  0  0  0  0  0  0  0
   12.1941    5.0654   34.6062 N   0  0  0  0  0  0  0  0  0  0  0  0
   10.2313   -4.2498   33.5826 O   0  0  0  0  0  0  0  0  0  0  0  0
   10.7675    0.1396   33.5797 C   0  0  0  0  0  0  0  0  0  0  0  0
   13.7346    2.3947   32.0001 C   0  0  0  0  0  0  0  0  0  0  0  0
  3  1  1  1
  3  2  1  0
  6  5  1  0
  7  4  1  0
  7  5  1  0
  9  8  1  0
 11  1  1  0
 11 10  2  0
 12  9  2  0
 13 11  1  0
 14  5  1  0
 15  3  1  0
 15  4  1  0
 16  2  2  3
 16  9  1  0
M  END
>  <ID>  (1) 
conformer_0

$$$$
