
     RDKit          3D

 14 14  0  0  0  0  0  0  0  0999 V2000
   13.0823    3.0012   32.5527 C   0  0  2  0  0  0  0  0  0  0  0  0
   11.3578    2.6564   33.4150 C   0  0  2  0  0  0  0  0  0  0  0  0
   13.8827    1.5972   31.1154 C   0  0  0  0  0  0  0  0  0  0  0  0
   11.5027   -0.9342   32.8310 C   0  0  0  0  0  0  0  0  0  0  0  0
   14.2739    0.2116   30.7272 N   0  0  0  0  0  0  0  0  0  0  0  0
   12.2579    1.7958   32.6515 C   0  0  2  0  0  0  0  0  0  0  0  0
   11.1988   -3.6585   32.7317 P   0  0  0  0  0  0  0  0  0  0  0  0
   10.8842   -4.3637   31.7773 O   0  0  0  0  0  0  0  0  0  0  0  0
   11.4170    4.2286   33.7234 C   0  0  0  0  0  0  0  0  0  0  0  0
   12.3718   -3.5018   33.1842 O   0  0  0  0  0  0  0  0  0  0  0  0
   10.1196   -4.0323   33.7311 O   0  0  0  0  0  0  0  0  0  0  0  0
   11.2288    0.5781   33.4705 C   0  0  0  0  0  0  0  0  0  0  0  0
   14.7798    0.8724   29.9110 C   0  0  0  0  0  0  0  0  0  0  0  0
   15.4041    1.8883   29.6397 S   0  0  0  0  0  0  0  0  0  0  0  0
  2  1  1  0
  1  3  1  6
  5  3  2  3
  6  1  1  0
  6  2  1  0
  8  7  1  0
  2  9  1  6
 10  4  1  0
 10  7  1  0
 11  7  1  0
 12  4  1  0
  6 12  1  1
 13  5  1  0
 14 13  2  0
M  END
>  <ID>  (1) 
conformer_0

$$$$
