
     RDKit          3D

 16 16  0  0  0  0  0  0  0  0999 V2000
   13.1210    2.7652   32.5224 C   0  0  0  0  0  0  0  0  0  0  0  0
   11.2704    3.1790   33.3534 C   0  0  0  0  0  0  0  0  0  0  0  0
   10.8714   -1.0906   33.2096 C   0  0  0  0  0  0  0  0  0  0  0  0
   11.0530   -3.5334   32.8723 P   0  0  0  0  0  0  0  0  0  0  0  0
   14.2629    0.6768   30.6462 C   0  0  0  0  0  0  0  0  0  0  0  0
   11.0359   -4.2552   31.7950 O   0  0  0  0  0  0  0  0  0  0  0  0
   12.0776    1.7815   33.1733 C   0  0  0  0  0  0  0  0  0  0  0  0
   12.4081   -3.4514   33.6009 O   0  0  0  0  0  0  0  0  0  0  0  0
   11.2738    5.7152   32.5229 O   0  0  0  0  0  0  0  0  0  0  0  0
   14.2086   -0.4914   30.6064 N   0  0  0  0  0  0  0  0  0  0  0  0
   11.6760    4.5815   33.3571 C   0  0  0  0  0  0  0  0  0  0  0  0
   10.0312   -4.0140   33.7824 O   0  0  0  0  0  0  0  0  0  0  0  0
   15.2201    1.8494   29.7731 S   0  0  0  0  0  0  0  0  0  0  0  0
   10.8681    0.9117   33.6392 C   0  0  0  0  0  0  0  0  0  0  0  0
   12.2697    0.3619   32.6149 C   0  0  0  0  0  0  0  0  0  0  0  0
   11.4122   -1.9110   32.6674 O   0  0  0  0  0  0  0  0  0  0  0  0
  2  1  1  0
  6  4  1  0
  7  1  1  0
  7  5  1  0
  8  3  1  0
  8  4  1  0
 10  5  1  0
 11  2  1  0
 11  9  1  0
 12  4  1  0
 13  5  2  0
 14  3  1  0
 14  7  1  0
 15  7  1  0
 15 14  1  0
 16  3  1  0
M  END
>  <ID>  (1) 
conformer_0

$$$$
