
     RDKit          3D

 19 18  0  0  0  0  0  0  0  0999 V2000
   10.5761    3.1092   32.7579 C   0  0  0  0  0  0  0  0  0  0  0  0
   13.3946    3.2175   32.2314 C   0  0  0  0  0  0  0  0  0  0  0  0
   13.5553    0.3252   31.4775 N   0  0  0  0  0  0  0  0  0  0  0  0
   11.5929   -0.0805   32.8726 C   0  0  0  0  0  0  0  0  0  0  0  0
   14.5665    0.7397   30.3427 C   0  0  0  0  0  0  0  0  0  0  0  0
   11.0370   -3.6593   32.6776 P   0  0  0  0  0  0  0  0  0  0  0  0
   11.6811    4.1096   33.3593 C   0  0  0  0  0  0  0  0  0  0  0  0
   10.8349   -4.2030   31.6391 O   0  0  0  0  0  0  0  0  0  0  0  0
   10.8920    5.2392   33.5382 O   0  0  0  0  0  0  0  0  0  0  0  0
   12.3646   -3.8862   33.2610 O   0  0  0  0  0  0  0  0  0  0  0  0
   15.5049    1.9109   29.8392 S   0  0  0  0  0  0  0  0  0  0  0  0
   14.0477    2.4286   31.7590 C   0  0  0  0  0  0  0  0  0  0  0  0
   12.5760    2.0974   32.8576 C   0  0  0  0  0  0  0  0  0  0  0  0
    9.9379   -4.0163   33.4901 O   0  0  0  0  0  0  0  0  0  0  0  0
   10.9806    1.8767   33.6308 C   0  0  2  0  0  0  0  0  0  0  0  0
   14.4059   -0.4362   30.4022 N   0  0  0  0  0  0  0  0  0  0  0  0
   11.4157   -1.9943   32.6637 O   0  0  0  0  0  0  0  0  0  0  0  0
   11.0007   -1.7152   33.3910 C   0  0  2  0  0  0  0  0  0  0  0  0
   10.6707    0.1498   33.6277 C   0  0  0  0  0  0  0  0  0  0  0  0
  5  3  2  3
  7  1  1  0
  8  6  1  0
  9  7  1  0
 10  6  1  0
 11  5  1  0
 12  2  1  0
 12 11  1  0
 13  2  1  0
 14  6  1  0
 15  1  1  6
 15 13  1  0
 16  5  1  0
 18  4  1  0
 18 10  1  0
 18 17  1  6
 19  4  1  0
 19 15  1  0
M  END
>  <ID>  (1) 
conformer_0

$$$$
