
     RDKit          3D

 14 15  0  0  0  0  0  0  0  0999 V2000
   10.7783    2.0652   33.5940 C   0  0  0  0  0  0  0  0  0  0  0  0
   13.8028    1.1698   31.4399 C   0  0  0  0  0  0  0  0  0  0  0  0
   11.9419    2.8877   32.2599 C   0  0  0  0  0  0  0  0  0  0  0  0
   10.9376   -0.7202   32.9321 C   0  0  0  0  0  0  0  0  0  0  0  0
   14.0793   -0.3175   30.9176 N   0  0  0  0  0  0  0  0  0  0  0  0
   10.9054   -4.2004   31.7293 O   0  0  0  0  0  0  0  0  0  0  0  0
   11.0030   -3.5609   32.8567 P   0  0  0  0  0  0  0  0  0  0  0  0
   11.1348    3.8589   33.5882 C   0  0  0  0  0  0  0  0  0  0  0  0
   12.3027   -3.5582   33.2396 O   0  0  0  0  0  0  0  0  0  0  0  0
    9.8202   -3.6502   33.7835 O   0  0  0  0  0  0  0  0  0  0  0  0
   11.6335    0.9801   32.8317 C   0  0  0  0  0  0  0  0  0  0  0  0
   15.4455    1.6775   29.7799 S   0  0  0  0  0  0  0  0  0  0  0  0
   14.7163    0.5775   30.1537 C   0  0  0  0  0  0  0  0  0  0  0  0
   13.2708    2.3528   32.1176 C   0  0  0  0  0  0  0  0  0  0  0  0
  3  1  1  0
  5  2  2  0
  7  6  1  0
  8  1  1  0
  8  3  1  0
  9  4  1  0
  9  7  1  0
 10  7  1  0
 11  1  1  0
 11  4  1  0
 13  2  1  0
 13  5  1  0
 13 12  2  0
 14  2  1  0
 14  3  1  0
M  END
>  <ID>  (1) 
conformer_0

$$$$
