
     RDKit          3D

 17 18  0  0  0  0  0  0  0  0999 V2000
   13.3328    2.9675   32.9794 C   0  0  0  0  0  0  0  0  0  0  0  0
   12.7398    2.9332   32.0743 C   0  0  0  0  0  0  0  0  0  0  0  0
   14.5914    0.5808   30.2314 C   0  0  0  0  0  0  0  0  0  0  0  0
   11.1302   -1.6407   33.1992 C   0  0  0  0  0  0  0  0  0  0  0  0
   10.7587    2.6688   33.2805 C   0  0  0  0  0  0  0  0  0  0  0  0
   15.4121    1.9267   29.9007 S   0  0  0  0  0  0  0  0  0  0  0  0
   10.5747    5.0482   33.6755 O   0  0  0  0  0  0  0  0  0  0  0  0
   13.6558   -0.4807   31.1483 N   0  0  0  0  0  0  0  0  0  0  0  0
   11.1993   -3.5881   32.8910 P   0  0  0  0  0  0  0  0  0  0  0  0
   12.2744   -3.2554   33.4267 O   0  0  0  0  0  0  0  0  0  0  0  0
   11.2305   -4.3154   31.9339 O   0  0  0  0  0  0  0  0  0  0  0  0
   11.5219    4.1274   33.5297 C   0  0  0  0  0  0  0  0  0  0  0  0
   13.8179    1.2971   31.2483 C   0  0  0  0  0  0  0  0  0  0  0  0
   10.7303    0.4980   33.3584 C   0  0  0  0  0  0  0  0  0  0  0  0
   10.0629   -4.0135   33.6544 O   0  0  0  0  0  0  0  0  0  0  0  0
   11.9511   -0.2469   32.5723 C   0  0  0  0  0  0  0  0  0  0  0  0
   11.6932    1.5931   33.0601 C   0  0  0  0  0  0  0  0  0  0  0  0
  2  1  1  0
  6  3  2  0
  8  3  1  0
 10  4  1  0
 10  9  1  0
 11  9  1  0
 12  5  1  0
 12  7  1  0
 13  2  1  0
 13  3  1  0
 13  8  2  0
 15  9  1  0
 16  4  1  0
 16 14  1  0
 17  2  1  0
 17  5  1  0
 17 14  1  0
 17 16  1  0
M  END
>  <ID>  (1) 
conformer_0

$$$$
