
     RDKit          3D

 19 21  0  0  0  0  0  0  0  0999 V2000
   13.3256    2.7459   31.9604 C   0  0  0  0  0  0  0  0  0  0  0  0
   13.7851    3.5060   33.0806 C   0  0  0  0  0  0  0  0  0  0  0  0
   13.8992    0.8750   31.1980 C   0  0  0  0  0  0  0  0  0  0  0  0
   11.0328   -1.5604   32.9410 C   0  0  0  0  0  0  0  0  0  0  0  0
   13.5937    0.0034   31.4539 N   0  0  0  0  0  0  0  0  0  0  0  0
   15.2273    1.7641   29.7153 S   0  0  0  0  0  0  0  0  0  0  0  0
   11.7613    4.1893   33.4643 C   0  0  0  0  0  0  0  0  0  0  0  0
   11.4936    3.1703   33.1425 C   0  0  0  0  0  0  0  0  0  0  0  0
   11.1634   -3.5627   32.8191 P   0  0  0  0  0  0  0  0  0  0  0  0
   10.9494   -4.2659   31.7545 O   0  0  0  0  0  0  0  0  0  0  0  0
   12.3899   -3.3850   33.0858 O   0  0  0  0  0  0  0  0  0  0  0  0
   10.1174    2.5162   33.1668 C   0  0  0  0  0  0  0  0  0  0  0  0
   11.5262    5.2867   34.1317 N   0  0  0  0  0  0  0  0  0  0  0  0
   14.9172    0.2970   29.9008 C   0  0  0  0  0  0  0  0  0  0  0  0
   10.3063   -4.1635   33.7587 O   0  0  0  0  0  0  0  0  0  0  0  0
   14.4480   -0.9976   30.4656 N   0  0  0  0  0  0  0  0  0  0  0  0
   12.1074    1.5802   32.8004 C   0  0  0  0  0  0  0  0  0  0  0  0
   11.5359    0.1590   32.4602 C   0  0  0  0  0  0  0  0  0  0  0  0
   10.6605    0.8595   33.4743 C   0  0  0  0  0  0  0  0  0  0  0  0
  2  1  1  0
  3  1  1  0
  5  3  2  0
  8  7  1  0
 10  9  1  0
 11  4  1  0
 11  9  1  0
 12  8  1  0
 13  7  1  0
 14  3  1  0
 14  6  2  0
 15  9  1  0
 16  5  1  0
 16 14  1  0
 17  1  1  0
 17  8  1  0
 18  4  1  0
 18 17  1  0
 19 12  1  0
 19 17  1  0
 19 18  1  0
M  END
>  <ID>  (1) 
conformer_0

$$$$
