
     RDKit          3D

 15 15  0  0  0  0  0  0  0  0999 V2000
   10.5011    2.2865   33.7060 C   0  0  0  0  0  0  0  0  0  0  0  0
   13.9847    1.6151   31.1922 C   0  0  2  0  0  0  0  0  0  0  0  0
   11.8414    2.4219   32.9692 C   0  0  2  0  0  0  0  0  0  0  0  0
   11.3931   -0.8294   32.8802 C   0  0  0  0  0  0  0  0  0  0  0  0
   15.3589    1.8927   29.8724 S   0  0  0  0  0  0  0  0  0  0  0  0
   11.2577   -3.6738   32.9122 P   0  0  0  0  0  0  0  0  0  0  0  0
   13.8693   -0.1511   31.0460 N   0  0  0  0  0  0  0  0  0  0  0  0
   10.8987    0.6090   33.2841 C   0  0  0  0  0  0  0  0  0  0  0  0
   12.4989   -3.5503   33.4061 O   0  0  0  0  0  0  0  0  0  0  0  0
   11.0574   -4.2421   31.7672 O   0  0  0  0  0  0  0  0  0  0  0  0
   11.3176    4.2903   33.8002 C   0  0  0  0  0  0  0  0  0  0  0  0
   14.5873    0.4542   30.2563 C   0  0  0  0  0  0  0  0  0  0  0  0
   10.7598    5.0862   33.6109 O   0  0  0  0  0  0  0  0  0  0  0  0
   10.2046   -4.3271   33.7026 O   0  0  0  0  0  0  0  0  0  0  0  0
   13.0198    2.6860   32.1083 C   0  0  0  0  0  0  0  0  0  0  0  0
  3  1  1  6
  5  2  1  0
  8  1  1  0
  8  4  1  0
  9  4  1  0
  9  6  1  0
 10  6  1  0
 11  3  1  0
 12  2  1  0
 12  5  1  0
 12  7  2  3
 13 11  2  0
 14  6  1  0
  2 15  1  6
 15  3  1  0
M  END
>  <ID>  (1) 
conformer_0

$$$$
