
     RDKit          3D

 15 15  0  0  0  0  0  0  0  0999 V2000
   13.2140    2.6407   32.9129 C   0  0  0  0  0  0  0  0  0  0  0  0
   11.9894    3.1098   32.9832 C   0  0  0  0  0  0  0  0  0  0  0  0
   13.5864    0.8598   31.6732 C   0  0  0  0  0  0  0  0  0  0  0  0
   11.4496   -0.9211   32.5704 C   0  0  0  0  0  0  0  0  0  0  0  0
   13.9713   -0.5328   31.1106 N   0  0  0  0  0  0  0  0  0  0  0  0
   11.0018    1.9913   33.0650 C   0  0  0  0  0  0  0  0  0  0  0  0
   10.9498   -4.2951   32.0395 O   0  0  0  0  0  0  0  0  0  0  0  0
   11.2677    5.5700   33.1709 O   0  0  0  0  0  0  0  0  0  0  0  0
   10.9528   -3.6266   32.8111 P   0  0  0  0  0  0  0  0  0  0  0  0
   12.0732    4.5471   33.7115 C   0  0  0  0  0  0  0  0  0  0  0  0
   12.4014   -3.5096   33.2689 O   0  0  0  0  0  0  0  0  0  0  0  0
   11.3177    0.4696   33.1067 C   0  0  0  0  0  0  0  0  0  0  0  0
   14.9342    1.7919   30.0542 S   0  0  0  0  0  0  0  0  0  0  0  0
   14.7023    0.4023   30.2265 C   0  0  0  0  0  0  0  0  0  0  0  0
   10.0461   -3.2531   33.3976 O   0  0  0  0  0  0  0  0  0  0  0  0
  2  1  1  0
  3  1  1  0
  5  3  1  0
  6  2  1  0
  9  4  1  0
  9  7  1  0
 10  2  1  0
 10  8  1  0
 12  4  2  0
 12  6  2  0
 14  3  1  0
 14  5  1  0
 14 13  2  0
 15  9  1  0
 15 11  1  0
M  END
>  <ID>  (1) 
conformer_0

$$$$
