
     RDKit          3D

 15 15  0  0  0  0  0  0  0  0999 V2000
   11.0945    0.6160   33.3250 C   0  0  0  0  0  0  0  0  0  0  0  0
   10.6659    2.1755   33.3999 C   0  0  0  0  0  0  0  0  0  0  0  0
   14.0528    1.5408   31.2464 C   0  0  0  0  0  0  0  0  0  0  0  0
   13.6685   -0.1467   31.3098 N   0  0  0  0  0  0  0  0  0  0  0  0
   11.4526   -0.7585   32.9706 C   0  0  0  0  0  0  0  0  0  0  0  0
   15.3028    1.5293   29.7943 S   0  0  0  0  0  0  0  0  0  0  0  0
   11.1580   -3.6932   32.7158 P   0  0  0  0  0  0  0  0  0  0  0  0
   11.0723   -4.2979   31.6650 O   0  0  0  0  0  0  0  0  0  0  0  0
   11.8572    2.4141   32.7772 C   0  0  0  0  0  0  0  0  0  0  0  0
   12.6209   -3.8216   33.4776 O   0  0  0  0  0  0  0  0  0  0  0  0
   11.1817    4.1540   33.8911 C   0  0  0  0  0  0  0  0  0  0  0  0
   10.0476   -4.1656   33.7067 O   0  0  0  0  0  0  0  0  0  0  0  0
   13.1320    2.6344   32.2784 C   0  0  0  0  0  0  0  0  0  0  0  0
   11.2157   -2.3165   32.7872 O   0  0  0  0  0  0  0  0  0  0  0  0
   14.6358    0.4121   30.2338 C   0  0  0  0  0  0  0  0  0  0  0  0
  2  1  1  0
  4  3  2  0
  5  1  1  0
  8  7  1  0
  9  2  1  0
 10  5  2  0
 11  2  1  0
 12  7  1  0
 13  3  1  0
 13  9  1  0
 14  5  1  0
 14  7  1  0
 15  3  1  0
 15  4  1  0
 15  6  2  0
M  END
>  <ID>  (1) 
conformer_0

$$$$
