
     RDKit          3D

 17 17  0  0  0  0  0  0  0  0999 V2000
   12.0784    2.6713   32.8717 C   0  0  0  0  0  0  0  0  0  0  0  0
   13.4331    2.9003   32.3281 C   0  0  0  0  0  0  0  0  0  0  0  0
   13.9528    0.9577   31.0547 C   0  0  0  0  0  0  0  0  0  0  0  0
   11.1592   -1.4049   32.8521 C   0  0  0  0  0  0  0  0  0  0  0  0
   13.9466   -0.6824   30.8232 N   0  0  0  0  0  0  0  0  0  0  0  0
   10.8272    5.0491   33.5322 O   0  0  0  0  0  0  0  0  0  0  0  0
   11.2142   -3.7473   32.8099 P   0  0  0  0  0  0  0  0  0  0  0  0
   12.3341   -3.4647   33.5068 O   0  0  0  0  0  0  0  0  0  0  0  0
   10.9048    0.8303   33.2784 C   0  0  0  0  0  0  0  0  0  0  0  0
   11.4696   -4.0714   31.5630 O   0  0  0  0  0  0  0  0  0  0  0  0
   11.4261    4.5655   33.8210 C   0  0  0  0  0  0  0  0  0  0  0  0
   14.7224    0.4350   30.0124 C   0  0  0  0  0  0  0  0  0  0  0  0
   13.2459    0.6416   31.6845 N   0  0  0  0  0  0  0  0  0  0  0  0
   15.4765    1.7356   30.0476 S   0  0  0  0  0  0  0  0  0  0  0  0
   10.3703    2.1827   33.5761 C   0  0  0  0  0  0  0  0  0  0  0  0
   10.3601   -4.5644   33.1455 O   0  0  0  0  0  0  0  0  0  0  0  0
   11.9395    0.4127   32.4485 C   0  0  0  0  0  0  0  0  0  0  0  0
  2  1  1  0
  5  3  2  0
  8  4  1  0
  8  7  1  0
 10  7  1  0
 11  1  1  0
 11  6  2  0
 12  3  1  0
 12  5  1  0
 13  3  1  0
 14 12  2  0
 15  1  1  0
 15  9  1  0
 16  7  1  0
 17  4  1  0
 17  9  1  0
 17 13  1  0
M  END
>  <ID>  (1) 
conformer_0

$$$$
