
     RDKit          3D

 15 14  0  0  0  0  0  0  0  0999 V2000
   10.9766    0.9800   33.3628 C   0  0  0  0  0  0  0  0  0  0  0  0
   12.6746    2.2708   32.7744 C   0  0  0  0  0  0  0  0  0  0  0  0
   14.0366    1.5425   31.1898 C   0  0  0  0  0  0  0  0  0  0  0  0
   11.2074   -1.1518   33.2814 C   0  0  0  0  0  0  0  0  0  0  0  0
   11.6419    5.1544   33.1217 O   0  0  0  0  0  0  0  0  0  0  0  0
   14.0731    0.0995   30.8724 N   0  0  0  0  0  0  0  0  0  0  0  0
   11.0240   -4.1377   31.5998 O   0  0  0  0  0  0  0  0  0  0  0  0
   11.1885   -3.5414   32.6177 P   0  0  0  0  0  0  0  0  0  0  0  0
   13.3951    3.2028   32.0286 C   0  0  0  0  0  0  0  0  0  0  0  0
   11.5618    4.0562   33.4494 C   0  0  0  0  0  0  0  0  0  0  0  0
   12.3881   -3.3664   32.9342 O   0  0  0  0  0  0  0  0  0  0  0  0
   10.1129   -3.7878   33.5926 O   0  0  0  0  0  0  0  0  0  0  0  0
   14.8366    0.4539   29.8492 C   0  0  0  0  0  0  0  0  0  0  0  0
   10.8061    2.3790   33.5782 C   0  0  0  0  0  0  0  0  0  0  0  0
   14.9634   -0.3640   29.2682 N   0  0  0  0  0  0  0  0  0  0  0  0
  4  1  3  0
  6  3  1  0
  8  7  1  0
  9  2  1  0
  9  3  1  0
 10  5  1  0
 11  4  1  0
 11  8  1  0
 12  8  1  0
 13  6  2  3
 14  1  1  0
 14  2  1  0
 14 10  1  0
 15 13  1  0
M  END
>  <ID>  (1) 
conformer_0

$$$$
