
     RDKit          3D

 15 14  0  0  0  0  0  0  0  0999 V2000
   11.9777    3.1550   32.7535 C   0  0  0  0  0  0  0  0  0  0  0  0
   11.1844   -0.9891   33.1173 C   0  0  0  0  0  0  0  0  0  0  0  0
   13.0341    2.7037   32.9469 C   0  0  0  0  0  0  0  0  0  0  0  0
   11.0537   -3.6711   32.5001 P   0  0  0  0  0  0  0  0  0  0  0  0
   10.8931   -4.2160   31.4322 O   0  0  0  0  0  0  0  0  0  0  0  0
   14.5198    1.2453   30.6113 C   0  0  0  0  0  0  0  0  0  0  0  0
   11.5812    4.3649   33.5281 C   0  0  0  0  0  0  0  0  0  0  0  0
   12.5838    0.9578   32.3359 C   0  0  0  0  0  0  0  0  0  0  0  0
   12.1777   -3.3610   32.8923 O   0  0  0  0  0  0  0  0  0  0  0  0
   11.0053    1.0068   33.5179 C   0  0  0  0  0  0  0  0  0  0  0  0
   10.2545   -4.3586   33.6171 O   0  0  0  0  0  0  0  0  0  0  0  0
   14.8542    0.0713   29.9733 S   0  0  0  0  0  0  0  0  0  0  0  0
   12.3207    5.5201   33.9222 N   0  0  0  0  0  0  0  0  0  0  0  0
   12.8407    0.0054   31.7421 N   0  0  0  0  0  0  0  0  0  0  0  0
   10.5080    2.6023   33.3022 C   0  0  0  0  0  0  0  0  0  0  0  0
  3  1  1  0
  5  4  1  0
  7  1  1  0
  8  3  1  0
  9  2  1  0
  9  4  1  0
 10  2  3  0
 11  4  1  0
 12  6  2  0
 13  7  1  0
 14  6  1  0
 14  8  1  0
 15  1  1  0
 15 10  1  0
M  END
>  <ID>  (1) 
conformer_0

$$$$
