
     RDKit          3D

 15 17  0  0  0  0  0  0  0  0999 V2000
   12.7265    2.7657   31.9909 C   0  0  0  0  0  0  0  0  0  0  0  0
   12.9987    3.2130   33.1732 C   0  0  0  0  0  0  0  0  0  0  0  0
   13.6243    1.1249   31.4424 C   0  0  0  0  0  0  0  0  0  0  0  0
   11.2765   -1.1341   32.9295 C   0  0  0  0  0  0  0  0  0  0  0  0
   11.6691    1.4605   32.8291 C   0  0  0  0  0  0  0  0  0  0  0  0
   11.1231   -3.6036   32.5926 P   0  0  0  0  0  0  0  0  0  0  0  0
   10.8783   -4.0987   31.8474 O   0  0  0  0  0  0  0  0  0  0  0  0
   11.8572    4.3098   33.7226 C   0  0  0  0  0  0  0  0  0  0  0  0
   14.0335    0.0053   30.7020 N   0  0  0  0  0  0  0  0  0  0  0  0
   11.9104   -3.1179   32.9692 O   0  0  0  0  0  0  0  0  0  0  0  0
   15.0795    2.2801   30.4478 S   0  0  0  0  0  0  0  0  0  0  0  0
   14.6859    0.8022   30.1626 C   0  0  0  0  0  0  0  0  0  0  0  0
   11.2382    2.6552   33.6834 C   0  0  0  0  0  0  0  0  0  0  0  0
   10.7593    0.3272   33.6176 C   0  0  0  0  0  0  0  0  0  0  0  0
   15.0131    0.3686   29.4253 N   0  0  0  0  0  0  0  0  0  0  0  0
  2  1  1  0
  3  1  1  0
  5  1  1  0
  7  6  1  0
  8  2  1  0
  9  3  1  0
 10  4  1  0
 10  6  1  0
 11  3  1  0
 12  9  2  0
 12 11  1  0
 13  2  1  0
 13  5  1  0
 13  8  1  0
 14  4  1  0
 14  5  1  0
 15 12  1  0
M  END
>  <ID>  (1) 
conformer_0

$$$$
