
     RDKit          3D

 16 17  0  0  0  0  0  0  0  0999 V2000
   12.7283    3.2339   33.3163 C   0  0  0  0  0  0  0  0  0  0  0  0
   13.1859    3.1528   31.7657 C   0  0  0  0  0  0  0  0  0  0  0  0
   13.9180    0.9676   31.0814 C   0  0  0  0  0  0  0  0  0  0  0  0
   10.9946   -0.9995   33.1203 C   0  0  0  0  0  0  0  0  0  0  0  0
   11.3472    2.2322   32.5579 C   0  0  0  0  0  0  0  0  0  0  0  0
   11.3444    5.0742   33.3367 O   0  0  0  0  0  0  0  0  0  0  0  0
   11.0898   -3.6852   32.7882 P   0  0  0  0  0  0  0  0  0  0  0  0
   14.0278   -0.2237   30.8184 N   0  0  0  0  0  0  0  0  0  0  0  0
   10.9337   -4.2200   31.6657 O   0  0  0  0  0  0  0  0  0  0  0  0
   12.2322   -3.4845   33.3281 O   0  0  0  0  0  0  0  0  0  0  0  0
   12.0489    4.0934   33.3122 C   0  0  0  0  0  0  0  0  0  0  0  0
    9.9852   -3.9942   33.7848 O   0  0  0  0  0  0  0  0  0  0  0  0
   10.8299    2.1418   33.6674 C   0  0  0  0  0  0  0  0  0  0  0  0
   14.5817    1.9735   30.3789 O   0  0  0  0  0  0  0  0  0  0  0  0
   14.9045    0.6539   29.8493 C   0  0  0  0  0  0  0  0  0  0  0  0
   11.1225    0.4255   33.3302 C   0  0  0  0  0  0  0  0  0  0  0  0
  2  1  1  0
  3  2  1  0
  5  1  1  0
  8  3  1  0
  9  7  1  0
 10  4  1  0
 10  7  1  0
 11  1  1  0
 11  6  1  0
 12  7  1  0
 13  5  1  0
 14  3  1  0
 15  3  1  0
 15  8  2  0
 15 14  1  0
 16  4  1  0
 16 13  1  0
M  END
>  <ID>  (1) 
conformer_0

$$$$
