
     RDKit          3D

 16 16  0  0  0  0  0  0  0  0999 V2000
   12.9200    2.4377   32.3829 C   0  0  0  0  0  0  0  0  0  0  0  0
   11.7922    3.0677   32.7031 C   0  0  0  0  0  0  0  0  0  0  0  0
   14.9905    0.7836   29.8937 C   0  0  0  0  0  0  0  0  0  0  0  0
   13.9140    0.2724   31.0974 N   0  0  0  0  0  0  0  0  0  0  0  0
   10.9735   -1.1630   33.1713 C   0  0  0  0  0  0  0  0  0  0  0  0
   15.1589    2.1208   29.7665 S   0  0  0  0  0  0  0  0  0  0  0  0
   11.2594   -3.6266   32.7331 P   0  0  0  0  0  0  0  0  0  0  0  0
   11.5754    5.5328   33.1465 O   0  0  0  0  0  0  0  0  0  0  0  0
   11.0103    1.7634   33.2892 C   0  0  0  0  0  0  0  0  0  0  0  0
   12.9104   -3.8449   33.3425 O   0  0  0  0  0  0  0  0  0  0  0  0
   11.0911   -4.1231   31.6226 O   0  0  0  0  0  0  0  0  0  0  0  0
   11.6013    4.2674   33.4879 C   0  0  0  0  0  0  0  0  0  0  0  0
   10.2995   -4.4157   33.5783 O   0  0  0  0  0  0  0  0  0  0  0  0
   10.8395    0.3991   33.5039 C   0  0  0  0  0  0  0  0  0  0  0  0
   13.8993    1.6490   31.2444 C   0  0  0  0  0  0  0  0  0  0  0  0
   11.4831   -2.4996   33.0571 O   0  0  0  0  0  0  0  0  0  0  0  0
  2  1  1  0
  4  3  2  0
  6  3  1  0
  9  2  1  0
 10  5  1  0
 11  7  1  0
 12  2  1  0
 12  8  1  0
 13  7  1  0
 14  5  1  0
 14  9  1  0
 15  1  1  0
 15  4  1  0
 15  6  1  0
 16  5  1  0
 16  7  1  0
M  END
>  <ID>  (1) 
conformer_0

$$$$
