
     RDKit          3D

 18 18  0  0  0  0  0  0  0  0999 V2000
   13.6487    3.2913   32.3937 C   0  0  0  0  0  0  0  0  0  0  0  0
   12.4388    3.2241   33.0752 C   0  0  0  0  0  0  0  0  0  0  0  0
   13.1438    0.0621   31.7241 C   0  0  0  0  0  0  0  0  0  0  0  0
   13.9530   -0.4313   30.9010 N   0  0  0  0  0  0  0  0  0  0  0  0
   11.2548   -0.6402   32.7080 C   0  0  0  0  0  0  0  0  0  0  0  0
   11.0741   -3.6981   32.7096 P   0  0  0  0  0  0  0  0  0  0  0  0
   11.5563    5.3121   33.6114 O   0  0  0  0  0  0  0  0  0  0  0  0
   10.5208    1.9006   33.4145 C   0  0  0  0  0  0  0  0  0  0  0  0
   10.9656   -4.4799   31.7078 O   0  0  0  0  0  0  0  0  0  0  0  0
   12.4742   -3.7592   33.4398 O   0  0  0  0  0  0  0  0  0  0  0  0
   15.3918    1.8550   29.7803 S   0  0  0  0  0  0  0  0  0  0  0  0
   11.9976    4.4589   33.7145 C   0  0  0  0  0  0  0  0  0  0  0  0
   14.8263    0.3223   29.9796 C   0  0  0  0  0  0  0  0  0  0  0  0
   10.1545   -4.1600   33.6717 O   0  0  0  0  0  0  0  0  0  0  0  0
   10.5936    0.3328   33.7204 C   0  0  0  0  0  0  0  0  0  0  0  0
   11.0679   -1.9888   32.4910 O   0  0  0  0  0  0  0  0  0  0  0  0
   12.1053    1.7091   32.8992 C   0  0  0  0  0  0  0  0  0  0  0  0
   14.2375    1.5893   31.0187 C   0  0  0  0  0  0  0  0  0  0  0  0
  2  1  1  0
  4  3  1  0
  5  3  1  0
  9  6  1  0
 10  5  1  0
 10  6  1  0
 12  2  1  0
 12  7  2  0
 13  4  1  0
 13 11  1  0
 14  6  1  0
 15  5  1  0
 15  8  1  0
 16  5  1  0
 17  2  1  0
 17  8  1  0
 18 11  1  0
 18 13  2  0
M  END
>  <ID>  (1) 
conformer_0

$$$$
