
     RDKit          3D

 21 25  0  0  0  0  0  0  0  0999 V2000
   12.0813    1.2764   32.7605 C   0  0  0  0  0  0  0  0  0  0  0  0
   12.3542    3.3893   31.5616 C   0  0  0  0  0  0  0  0  0  0  0  0
   13.4955    0.3004   31.4747 C   0  0  0  0  0  0  0  0  0  0  0  0
   10.9501   -1.2639   33.1922 C   0  0  0  0  0  0  0  0  0  0  0  0
   11.3318   -3.6313   32.8253 P   0  0  0  0  0  0  0  0  0  0  0  0
   10.5034    2.2989   33.3305 C   0  0  0  0  0  0  0  0  0  0  0  0
   14.0057   -0.4717   30.8547 N   0  0  0  0  0  0  0  0  0  0  0  0
   10.2278   -3.7656   33.9724 O   0  0  0  0  0  0  0  0  0  0  0  0
   11.7572    4.2318   33.1349 C   0  0  0  0  0  0  0  0  0  0  0  0
   15.1752    1.6646   29.6966 S   0  0  0  0  0  0  0  0  0  0  0  0
   12.7281   -3.7691   32.9334 O   0  0  0  0  0  0  0  0  0  0  0  0
   10.9003    5.3551   32.8648 O   0  0  0  0  0  0  0  0  0  0  0  0
   12.0905    4.9980   33.9909 N   0  0  0  0  0  0  0  0  0  0  0  0
   10.5656    0.5186   33.7452 C   0  0  0  0  0  0  0  0  0  0  0  0
   14.8215    0.2570   29.8173 C   0  0  0  0  0  0  0  0  0  0  0  0
   10.9136   -4.5181   32.3009 O   0  0  0  0  0  0  0  0  0  0  0  0
   13.7197    2.3413   32.0839 C   0  0  0  0  0  0  0  0  0  0  0  0
   11.4244   -2.5257   32.3141 O   0  0  0  0  0  0  0  0  0  0  0  0
   12.2111    2.8525   33.4346 C   0  0  0  0  0  0  0  0  0  0  0  0
   14.2406    1.7939   30.9358 C   0  0  0  0  0  0  0  0  0  0  0  0
   11.8073    0.0034   32.7764 C   0  0  0  0  0  0  0  0  0  0  0  0
  6  1  1  0
  7  3  1  0
  8  5  1  0
  9  2  1  0
 11  4  1  0
 12  9  1  0
 13  9  1  0
 14  4  1  0
 14  6  1  0
 15  7  2  0
 15 10  1  0
 16  5  1  0
 17  2  1  0
 18  4  1  0
 18  5  1  0
 19  1  1  0
 19  2  1  0
 19  6  1  0
 19  9  1  0
 20  3  2  0
 20 10  1  0
 20 17  1  0
 21  1  1  0
 21  4  1  0
 21 14  1  0
M  END
>  <ID>  (1) 
conformer_0

$$$$
