
     RDKit          3D

 15 15  0  0  0  0  0  0  0  0999 V2000
   10.5035    2.8020   33.0215 C   0  0  0  0  0  0  0  0  0  0  0  0
   14.8805    0.7557   29.8301 C   0  0  0  0  0  0  0  0  0  0  0  0
   11.3414   -1.2037   33.0992 C   0  0  0  0  0  0  0  0  0  0  0  0
   12.8016    2.1780   32.3749 C   0  0  0  0  0  0  0  0  0  0  0  0
   11.2427    4.2431   33.5146 C   0  0  0  0  0  0  0  0  0  0  0  0
   12.3279   -3.5365   33.3774 O   0  0  0  0  0  0  0  0  0  0  0  0
   10.9821   -4.4692   31.9200 O   0  0  0  0  0  0  0  0  0  0  0  0
   14.0152    0.2075   30.9595 N   0  0  0  0  0  0  0  0  0  0  0  0
   11.1899   -3.7970   32.9022 P   0  0  0  0  0  0  0  0  0  0  0  0
   10.5379    5.2908   33.6427 O   0  0  0  0  0  0  0  0  0  0  0  0
   12.0222    2.7212   32.9760 C   0  0  0  0  0  0  0  0  0  0  0  0
    9.9886   -4.0820   33.9076 O   0  0  0  0  0  0  0  0  0  0  0  0
   13.9610    1.2550   31.1316 C   0  0  0  0  0  0  0  0  0  0  0  0
   10.9246    0.7375   33.5865 C   0  0  0  0  0  0  0  0  0  0  0  0
   15.6931    1.7766   29.5382 S   0  0  0  0  0  0  0  0  0  0  0  0
  5  1  1  0
  6  3  1  0
  8  2  1  0
  9  6  1  0
  9  7  1  0
 10  5  1  0
 11  1  1  0
 11  4  2  0
 11  5  1  0
 12  9  1  0
 13  4  2  0
 13  8  1  0
 14  1  1  0
 14  3  1  0
 15  2  2  0
M  END
>  <ID>  (1) 
conformer_0

$$$$
