
     RDKit          3D

 17 17  0  0  0  0  0  0  0  0999 V2000
   10.9982    2.5077   33.3437 C   0  0  0  0  0  0  0  0  0  0  0  0
   12.7130    2.9606   32.2521 C   0  0  0  0  0  0  0  0  0  0  0  0
   11.6391   -0.3450   32.4312 C   0  0  0  0  0  0  0  0  0  0  0  0
   14.9428    0.5215   30.0160 C   0  0  0  0  0  0  0  0  0  0  0  0
   11.1337   -3.5777   32.7962 P   0  0  0  0  0  0  0  0  0  0  0  0
   11.4844    4.1089   33.6176 C   0  0  0  0  0  0  0  0  0  0  0  0
   12.1803    1.8885   32.8473 C   0  0  0  0  0  0  0  0  0  0  0  0
   12.7090   -3.9481   33.2866 O   0  0  0  0  0  0  0  0  0  0  0  0
   10.8978   -4.1346   31.6903 O   0  0  0  0  0  0  0  0  0  0  0  0
   14.9953    1.9047   29.9434 S   0  0  0  0  0  0  0  0  0  0  0  0
   13.9839   -0.1410   30.8044 N   0  0  0  0  0  0  0  0  0  0  0  0
   11.2361    5.3121   32.8143 O   0  0  0  0  0  0  0  0  0  0  0  0
   10.0957   -4.0716   33.7061 O   0  0  0  0  0  0  0  0  0  0  0  0
   11.0939    0.5267   33.4915 C   0  0  0  0  0  0  0  0  0  0  0  0
   11.3969   -2.3941   33.0497 O   0  0  0  0  0  0  0  0  0  0  0  0
   13.8115    1.3732   31.2144 C   0  0  0  0  0  0  0  0  0  0  0  0
   10.9339   -1.5220   33.5460 C   0  0  0  0  0  0  0  0  0  0  0  0
  6  1  1  0
  7  1  1  0
  7  2  1  0
  9  5  1  0
 10  4  1  0
 11  4  2  0
 12  6  1  0
 13  5  1  0
 14  3  1  0
 14  7  1  0
 15  5  1  0
 16  2  1  0
 16 10  1  0
 16 11  1  0
 17  3  1  0
 17  8  1  0
 17 15  1  0
M  END
>  <ID>  (1) 
conformer_0

$$$$
