
     RDKit          3D

 16 15  0  0  0  0  0  0  0  0999 V2000
   10.9683    2.3670   33.3859 C   0  0  0  0  0  0  0  0  0  0  0  0
   12.4329    2.4760   32.5309 C   0  0  0  0  0  0  0  0  0  0  0  0
   13.5422    0.9351   31.5904 C   0  0  0  0  0  0  0  0  0  0  0  0
   11.6731    0.3419   32.5016 C   0  0  0  0  0  0  0  0  0  0  0  0
   11.2367   -3.6808   32.6479 P   0  0  0  0  0  0  0  0  0  0  0  0
   11.0900   -3.9776   31.3558 O   0  0  0  0  0  0  0  0  0  0  0  0
   11.1859    5.2946   33.3516 O   0  0  0  0  0  0  0  0  0  0  0  0
   12.3886   -3.4037   33.2562 O   0  0  0  0  0  0  0  0  0  0  0  0
   13.1139    3.6939   32.3131 C   0  0  0  0  0  0  0  0  0  0  0  0
   14.0903   -0.4785   30.9215 N   0  0  0  0  0  0  0  0  0  0  0  0
   12.2280    4.5223   33.2748 C   0  0  0  0  0  0  0  0  0  0  0  0
   10.9443    0.6806   33.3304 C   0  0  0  0  0  0  0  0  0  0  0  0
   15.5429    1.9586   29.9151 Cl  0  0  0  0  0  0  0  0  0  0  0  0
   14.5440    0.4340   30.2443 C   0  0  0  0  0  0  0  0  0  0  0  0
   10.5969   -4.6833   32.9974 O   0  0  0  0  0  0  0  0  0  0  0  0
   10.9303   -1.5187   33.0055 C   0  0  0  0  0  0  0  0  0  0  0  0
  2  1  1  0
  3  2  1  0
  6  5  1  0
  8  5  1  0
  9  2  1  0
 10  3  1  0
 11  7  1  0
 11  9  1  0
 12  1  1  0
 12  4  1  0
 14 10  1  0
 14 13  1  0
 15  5  1  0
 16  4  1  0
 16  8  1  0
M  END
>  <ID>  (1) 
conformer_0

$$$$
