
     RDKit          3D

 17 18  0  0  0  0  0  0  0  0999 V2000
   10.5045    1.7833   33.5313 C   0  0  0  0  0  0  0  0  0  0  0  0
   11.3565    3.0929   33.0546 C   0  0  0  0  0  0  0  0  0  0  0  0
   13.1266    2.4298   32.3748 C   0  0  0  0  0  0  0  0  0  0  0  0
   14.0537    0.0702   30.9326 N   0  0  0  0  0  0  0  0  0  0  0  0
   13.6734    1.4848   31.4488 C   0  0  0  0  0  0  0  0  0  0  0  0
   14.9723    1.8622   29.8746 S   0  0  0  0  0  0  0  0  0  0  0  0
   11.4577   -1.1739   33.0315 C   0  0  0  0  0  0  0  0  0  0  0  0
   11.0304    5.3318   33.0374 O   0  0  0  0  0  0  0  0  0  0  0  0
   11.1391   -3.5428   32.8453 P   0  0  0  0  0  0  0  0  0  0  0  0
   10.9553   -4.1529   31.7846 O   0  0  0  0  0  0  0  0  0  0  0  0
   11.8967    4.2135   33.1922 C   0  0  0  0  0  0  0  0  0  0  0  0
   12.1637   -3.4508   33.3146 O   0  0  0  0  0  0  0  0  0  0  0  0
   13.6578    3.8439   32.1332 C   0  0  0  0  0  0  0  0  0  0  0  0
   10.0040   -3.9763   33.7543 O   0  0  0  0  0  0  0  0  0  0  0  0
   14.8060    0.6137   29.9019 C   0  0  0  0  0  0  0  0  0  0  0  0
   11.7984    1.1579   32.6836 C   0  0  0  0  0  0  0  0  0  0  0  0
   10.8795   -0.1104   33.3936 C   0  0  0  0  0  0  0  0  0  0  0  0
  2  1  1  0
  5  3  1  0
  5  4  1  0
  6  5  1  0
 10  9  1  0
 11  2  1  0
 11  8  1  0
 12  7  1  0
 12  9  1  0
 13  3  1  0
 14  9  1  0
 15  4  2  0
 15  6  1  0
 16  1  1  0
 16  3  1  0
 17  1  1  0
 17  7  1  0
 17 16  1  0
M  END
>  <ID>  (1) 
conformer_0

$$$$
