
     RDKit          3D

 16 17  0  0  0  0  0  0  0  0999 V2000
   13.6326    2.7116   32.3869 C   0  0  0  0  0  0  0  0  0  0  0  0
   10.9196    2.7984   32.7351 C   0  0  0  0  0  0  0  0  0  0  0  0
   13.7099    1.0751   31.5057 C   0  0  0  0  0  0  0  0  0  0  0  0
   11.4233   -0.8305   32.6933 C   0  0  0  0  0  0  0  0  0  0  0  0
   12.3899    3.1946   32.9749 C   0  0  0  0  0  0  0  0  0  0  0  0
   13.8597   -0.2581   30.9098 N   0  0  0  0  0  0  0  0  0  0  0  0
   11.2090   -3.6898   32.5821 P   0  0  0  0  0  0  0  0  0  0  0  0
   12.0323    5.4504   32.8046 O   0  0  0  0  0  0  0  0  0  0  0  0
   10.9074   -4.4069   31.6711 O   0  0  0  0  0  0  0  0  0  0  0  0
   11.7587    4.5192   33.5142 C   0  0  0  0  0  0  0  0  0  0  0  0
   15.3705    1.8640   30.0774 S   0  0  0  0  0  0  0  0  0  0  0  0
   12.2098   -3.2667   32.8667 O   0  0  0  0  0  0  0  0  0  0  0  0
   12.0560    1.6408   32.9207 C   0  0  0  0  0  0  0  0  0  0  0  0
   10.1529   -3.8600   33.7158 O   0  0  0  0  0  0  0  0  0  0  0  0
   14.6144    0.6638   30.1860 C   0  0  0  0  0  0  0  0  0  0  0  0
   10.7459    0.3683   33.4299 C   0  0  0  0  0  0  0  0  0  0  0  0
  3  1  1  0
  5  1  1  0
  5  2  1  0
  6  3  1  0
  9  7  1  0
 10  5  1  0
 10  8  1  0
 12  4  1  0
 12  7  1  0
 13  2  1  0
 13  5  1  0
 14  7  1  0
 15  3  1  0
 15  6  1  0
 15 11  2  0
 16  4  1  0
 16 13  1  0
M  END
>  <ID>  (1) 
conformer_0

$$$$
