
     RDKit          3D

 16 16  0  0  0  0  0  0  0  0999 V2000
   13.0874    2.5220   32.3572 C   0  0  0  0  0  0  0  0  0  0  0  0
   12.0564    3.2820   32.7618 C   0  0  0  0  0  0  0  0  0  0  0  0
   11.0399   -1.1024   32.9118 C   0  0  0  0  0  0  0  0  0  0  0  0
   14.3626    0.8188   30.6647 C   0  0  0  0  0  3  0  0  0  0  0  0
   11.0679   -3.6964   32.7661 P   0  0  0  0  0  0  0  0  0  0  0  0
   10.4927    5.1891   33.8475 O   0  0  0  0  0  0  0  0  0  0  0  0
   10.9526   -4.4375   31.7700 O   0  0  0  0  0  0  0  0  0  0  0  0
   11.2314    0.8202   33.2421 C   0  0  2  0  0  0  0  0  0  0  0  0
   12.0818   -3.2959   33.1673 O   0  0  0  0  0  0  0  0  0  0  0  0
   13.8325   -0.4262   31.1085 N   0  0  0  0  0  0  0  0  0  0  0  0
   15.1523    1.7412   29.7726 S   0  0  0  0  0  3  0  0  0  0  0  0
   11.6285    4.5787   33.6560 C   0  0  0  0  0  0  0  0  0  0  0  0
   12.4725    5.5738   34.0228 N   0  0  0  0  0  0  0  0  0  0  0  0
   10.1604   -4.4463   33.7858 O   0  0  0  0  0  0  0  0  0  0  0  0
   10.9064    2.0259   33.4618 C   0  0  0  0  0  0  0  0  0  0  0  0
   12.4106    0.7012   32.2870 C   0  0  2  0  0  0  0  0  0  0  0  0
  2  1  1  0
  7  5  1  0
  8  3  1  6
  9  3  1  0
  9  5  1  0
 10  4  1  0
 11  4  2  3
 12  2  1  0
 12  6  2  0
 13 12  1  0
 14  5  1  0
 15  2  2  0
 15  8  1  0
 16  1  1  0
 16  8  1  0
 16 10  1  1
M  RAD  2   4   2  11   2
M  END
>  <ID>  (1) 
conformer_0

$$$$
