
     RDKit          3D

 16 16  0  0  0  0  0  0  0  0999 V2000
   13.2033    2.6582   32.4884 C   0  0  0  0  0  0  0  0  0  0  0  0
   12.2731    3.0696   33.2003 C   0  0  0  0  0  0  0  0  0  0  0  0
   11.4384   -1.1966   32.7750 C   0  0  0  0  0  0  0  0  0  0  0  0
   11.1548   -3.7987   32.4938 P   0  0  0  0  0  0  0  0  0  0  0  0
   13.6810   -0.3296   31.2457 N   0  0  0  0  0  0  0  0  0  0  0  0
   11.0875    5.2753   33.1861 O   0  0  0  0  0  0  0  0  0  0  0  0
   10.0923   -3.7421   33.6761 O   0  0  0  0  0  0  0  0  0  0  0  0
   12.2003   -3.4363   32.7685 O   0  0  0  0  0  0  0  0  0  0  0  0
   11.0172    1.9996   33.2255 C   0  0  2  0  0  0  0  0  0  0  0  0
   11.7513    4.5543   33.7294 C   0  0  0  0  0  0  0  0  0  0  0  0
   14.0189    0.5163   30.9962 C   0  0  0  0  0  0  0  0  0  0  0  0
   10.7425   -4.3689   31.5822 O   0  0  0  0  0  0  0  0  0  0  0  0
   12.1109    5.3610   34.8543 N   0  0  0  0  0  0  0  0  0  0  0  0
   14.8818    1.4259   30.2346 S   0  0  0  0  0  0  0  0  0  0  0  0
   10.6921    0.5491   33.4837 C   0  0  0  0  0  0  0  0  0  0  0  0
   12.1778    0.5476   32.5904 C   0  0  2  0  0  0  0  0  0  0  0  0
  2  1  2  3
  7  4  1  0
  8  3  1  0
  8  4  1  0
  9  2  1  0
 10  2  1  0
 10  6  2  0
 11  5  2  0
 12  4  1  0
 13 10  1  0
 14 11  2  0
  9 15  1  1
 16  3  1  6
 16  5  1  0
 16  9  1  0
 16 15  1  0
M  END
>  <ID>  (1) 
conformer_0

$$$$
