
     RDKit          3D

 15 15  0  0  0  0  0  0  0  0999 V2000
   12.4443    3.1500   32.8033 C   0  0  0  0  0  0  0  0  0  0  0  0
   11.0132    2.0115   33.4457 C   0  0  0  0  0  0  0  0  0  0  0  0
   13.9294    1.2494   31.2128 C   0  0  0  0  0  0  0  0  0  0  0  0
   11.2916   -1.0842   33.0875 C   0  0  0  0  0  0  0  0  0  0  0  0
   11.8032    4.3864   33.5902 C   0  0  0  0  0  0  0  0  0  0  0  0
   10.9540   -3.6704   32.8523 P   0  0  0  0  0  0  0  0  0  0  0  0
   11.2153    0.5873   33.2813 C   0  0  0  0  0  0  0  0  0  0  0  0
   10.8244   -4.4928   32.0123 O   0  0  0  0  0  0  0  0  0  0  0  0
   11.8958   -3.1819   32.9791 O   0  0  0  0  0  0  0  0  0  0  0  0
   13.9139   -0.3036   30.9893 N   0  0  0  0  0  0  0  0  0  0  0  0
   14.6482    0.5675   30.0454 C   0  0  0  0  0  0  0  0  0  0  0  0
   14.7411   -0.1911   29.4079 N   0  0  0  0  0  0  0  0  0  0  0  0
   12.3327    5.4395   34.3300 N   0  0  0  0  0  0  0  0  0  0  0  0
   10.0270   -4.0960   34.0369 O   0  0  0  0  0  0  0  0  0  0  0  0
   12.8812    2.0536   32.3984 C   0  0  0  0  0  0  0  0  0  0  0  0
  2  1  1  0
  5  1  1  0
  7  2  1  0
  7  4  3  0
  8  6  1  0
  9  4  1  0
  9  6  1  0
 10  3  1  0
 11  3  1  0
 11 10  2  0
 12 11  1  0
 13  5  1  0
 14  6  1  0
 15  1  1  0
 15  3  1  0
M  END
>  <ID>  (1) 
conformer_0

$$$$
