
     RDKit          3D

 18 18  0  0  0  0  0  0  0  0999 V2000
   13.2887    3.3075   33.2703 C   0  0  0  0  0  0  0  0  0  0  0  0
   13.5237    3.5027   31.8571 C   0  0  0  0  0  0  0  0  0  0  0  0
   11.6209    5.4505   33.1989 O   0  0  0  0  0  0  0  0  0  0  0  0
   11.2055    2.8956   33.2879 C   0  0  0  0  0  0  0  0  0  0  0  0
   11.2760   -0.8559   32.8437 C   0  0  0  0  0  0  0  0  0  0  0  0
   11.2350   -3.5743   32.7854 P   0  0  0  0  0  0  0  0  0  0  0  0
   10.1594   -4.2167   33.4394 O   0  0  0  0  0  0  0  0  0  0  0  0
   12.5518   -3.8140   33.4681 O   0  0  0  0  0  0  0  0  0  0  0  0
   12.2297    4.5087   33.1283 C   0  0  0  0  0  0  0  0  0  0  0  0
   11.5108   -3.8032   31.5034 O   0  0  0  0  0  0  0  0  0  0  0  0
   15.0706    1.5488   29.9188 S   0  0  0  0  0  0  0  0  0  0  0  0
   11.2383   -2.0503   32.7282 O   0  0  0  0  0  0  0  0  0  0  0  0
   12.6719    1.4062   32.0844 C   0  0  0  0  0  0  0  0  0  0  0  0
   11.9247    1.4597   32.7174 C   0  0  0  0  0  0  0  0  0  0  0  0
   13.7070   -0.2237   31.2606 N   0  0  0  0  0  0  0  0  0  0  0  0
   14.1624    1.0229   30.8279 O   0  0  0  0  0  0  0  0  0  0  0  0
   10.3045    1.3634   33.6487 C   0  0  0  0  0  0  0  0  0  0  0  0
   10.7440   -0.1800   33.5779 C   0  0  0  0  0  0  0  0  0  0  0  0
  2  1  1  0
  7  6  1  0
  8  5  1  0
  8  6  1  0
  9  1  1  0
  9  3  2  0
  9  4  1  0
 10  6  1  0
 12  5  1  0
 14  4  1  0
 14 13  1  0
 15 13  1  0
 16 11  1  0
 16 15  1  0
 17  4  1  0
 17 14  1  0
 18  5  1  0
 18 17  1  0
M  END
>  <ID>  (1) 
conformer_0

$$$$
