
     RDKit          3D

 14 13  0  0  0  0  0  0  0  0999 V2000
   12.2288    2.7624   32.7178 C   0  0  2  0  0  0  0  0  0  0  0  0
   13.2151    2.4669   32.5315 C   0  0  0  0  0  0  0  0  0  0  0  0
   14.7792    1.1808   30.1551 C   0  0  0  0  0  0  0  0  0  0  0  0
   11.3427   -0.9619   32.9151 C   0  0  0  0  0  0  0  0  0  0  0  0
   11.1310   -3.7193   32.6730 P   0  0  0  0  0  0  0  0  0  0  0  0
   11.9807    4.1926   33.5773 C   0  0  0  0  0  0  0  0  0  0  0  0
   10.8323   -4.0760   31.3426 O   0  0  0  0  0  0  0  0  0  0  0  0
   14.5531    0.4027   30.2798 N   0  0  0  0  0  0  0  0  0  0  0  0
   10.6818    2.2060   33.5056 C   0  0  0  0  0  0  0  0  0  0  0  0
   12.6743   -3.4835   32.9834 O   0  0  0  0  0  0  0  0  0  0  0  0
   10.9929    1.0670   33.3414 C   0  0  0  0  0  0  0  0  0  0  0  0
   10.2912   -2.7071   33.1281 O   0  0  0  0  0  0  0  0  0  0  0  0
   10.7989   -4.6744   33.2478 O   0  0  0  0  0  0  0  0  0  0  0  0
   13.7216    0.7393   31.2898 C   0  0  0  0  0  0  0  0  0  0  0  0
  2  1  1  0
  1  6  1  1
  7  5  1  0
  8  3  1  0
  9  1  1  0
 10  4  2  0
 11  4  1  0
 11  9  1  0
 12  4  1  0
 12  5  1  0
 13  5  1  0
 14  2  1  0
 14  8  2  3
M  END
>  <ID>  (1) 
conformer_0

$$$$
