
     RDKit          3D

 21 24  0  0  0  0  0  0  0  0999 V2000
   13.0789    2.7917   31.6231 C   0  0  0  0  0  0  0  0  0  0  0  0
   11.8637    3.1760   32.8846 C   0  0  0  0  0  0  0  0  0  0  0  0
   13.4182    0.3219   31.3632 N   0  0  0  0  0  0  0  0  0  0  0  0
   10.9588   -1.4620   32.9513 C   0  0  0  0  0  0  0  0  0  0  0  0
   13.7797    1.5374   31.1919 C   0  0  0  0  0  0  0  0  0  0  0  0
   11.0936   -3.7008   32.7962 P   0  0  0  0  0  0  0  0  0  0  0  0
   15.3801    1.8624   29.8292 S   0  0  0  0  0  0  0  0  0  0  0  0
   11.6833    1.4062   32.6807 C   0  0  0  0  0  0  0  0  0  0  0  0
   10.9492   -4.2523   31.7119 O   0  0  0  0  0  0  0  0  0  0  0  0
   12.6793   -3.8352   33.4416 O   0  0  0  0  0  0  0  0  0  0  0  0
   11.9932    4.4824   33.2594 C   0  0  0  0  0  0  0  0  0  0  0  0
   11.8880    5.8128   32.7368 O   0  0  0  0  0  0  0  0  0  0  0  0
   10.1126   -4.2584   33.7639 O   0  0  0  0  0  0  0  0  0  0  0  0
   13.6278    4.1785   32.2913 C   0  0  0  0  0  0  0  0  0  0  0  0
   11.6883    5.1544   34.3500 N   0  0  0  0  0  0  0  0  0  0  0  0
   14.8450    0.5715   29.7989 C   0  0  0  0  0  0  0  0  0  0  0  0
   11.0845   -2.4615   32.9787 O   0  0  0  0  0  0  0  0  0  0  0  0
   11.0221    2.6884   34.1755 C   0  0  0  0  0  0  0  0  0  0  0  0
   14.5543   -0.0611   30.5155 N   0  0  0  0  0  0  0  0  0  0  0  0
   11.6678    0.2103   32.3275 C   0  0  0  0  0  0  0  0  0  0  0  0
   10.6743    0.6861   33.3726 C   0  0  0  0  0  0  0  0  0  0  0  0
  2  1  1  0
  5  1  1  0
  5  3  2  0
  7  5  1  0
  8  2  1  0
  9  6  1  0
 10  4  1  0
 11  2  1  0
 12 11  1  0
 13  6  1  0
 14  1  1  0
 14 11  1  0
 15 11  1  0
 15 12  1  0
 16  7  1  0
 17  4  1  0
 17  6  1  0
 18  2  1  0
 19  3  1  0
 19 16  1  0
 20  4  1  0
 20  8  1  0
 21  8  1  0
 21 20  1  0
M  END
>  <ID>  (1) 
conformer_0

$$$$
