
     RDKit          3D

 18 19  0  0  0  0  0  0  0  0999 V2000
   12.6541    3.5128   32.5048 C   0  0  0  0  0  0  0  0  0  0  0  0
   13.7804    0.9056   31.0819 C   0  0  0  0  0  0  0  0  0  0  0  0
   10.9928    2.6895   33.3155 C   0  0  0  0  0  0  0  0  0  0  0  0
   11.0251   -1.3441   33.0998 C   0  0  1  0  0  0  0  0  0  0  0  0
   11.6911    4.3024   33.7501 C   0  0  2  0  0  0  0  0  0  0  0  0
   11.1031   -3.6393   32.8436 P   0  0  0  0  0  0  0  0  0  0  0  0
   10.9394   -4.1214   31.7142 O   0  0  0  0  0  0  0  0  0  0  0  0
   13.0213    2.2647   32.1303 C   0  0  2  0  0  0  0  0  0  0  0  0
   12.7399   -3.8597   33.3380 O   0  0  0  0  0  0  0  0  0  0  0  0
   14.1073   -0.7345   30.6735 N   0  0  0  0  0  0  0  0  0  0  0  0
   11.3139    5.3009   33.6542 O   0  0  0  0  0  0  0  0  0  0  0  0
   10.1834   -4.2178   33.8744 O   0  0  0  0  0  0  0  0  0  0  0  0
   14.8198    0.9177   29.9385 C   0  0  0  0  0  0  0  0  0  0  0  0
   11.6911    1.6470   33.0602 C   0  0  2  0  0  0  0  0  0  0  0  0
   11.4033   -2.3633   32.9398 O   0  0  0  0  0  0  0  0  0  0  0  0
   14.8018    1.3112   30.6623 N   0  0  0  0  0  0  0  0  0  0  0  0
   10.6689    0.0387   33.6438 C   0  0  2  0  0  0  0  0  0  0  0  0
   12.2254   -0.1893   32.4884 C   0  0  0  0  0  0  0  0  0  0  0  0
  5  1  1  0
  5  3  1  0
  7  6  1  0
  8  1  1  6
  8  2  1  0
  4  9  1  1
 10  2  2  3
  5 11  1  6
 12  6  1  0
 14  3  1  6
 14  8  1  0
 15  4  1  0
 15  6  1  0
 16  2  1  0
 16 13  2  3
 17  4  1  0
 17 14  1  0
 18  4  1  0
 17 18  1  1
M  END
>  <ID>  (1) 
conformer_0

$$$$
