
     RDKit          3D

 15 15  0  0  0  0  0  0  0  0999 V2000
   13.4058    2.9160   31.9830 C   0  0  0  0  0  0  0  0  0  0  0  0
   14.7486    0.6683   30.1407 C   0  0  0  0  0  0  0  0  0  0  0  0
   12.1706    2.9720   32.9632 C   0  0  0  0  0  0  0  0  0  0  0  0
   13.7191    0.0305   31.2483 N   0  0  0  0  0  0  0  0  0  0  0  0
   11.0342   -3.6716   32.6305 P   0  0  0  0  0  0  0  0  0  0  0  0
   10.9050   -4.3069   31.6059 O   0  0  0  0  0  0  0  0  0  0  0  0
   11.1348   -0.7619   32.6631 C   0  0  1  0  0  0  0  0  0  0  0  0
   11.3879    1.8870   33.3454 C   0  0  0  0  0  0  0  0  0  0  0  0
   12.4791   -3.9711   33.3750 O   0  0  0  0  0  0  0  0  0  0  0  0
    9.8753   -3.9112   33.7133 O   0  0  0  0  0  0  0  0  0  0  0  0
   11.7611    4.1023   33.8702 C   0  0  0  0  0  0  0  0  0  0  0  0
   14.0914    1.6207   31.1147 C   0  0  0  0  0  0  0  0  0  0  0  0
   11.0864   -2.3590   32.7168 O   0  0  0  0  0  0  0  0  0  0  0  0
   11.2277    0.4359   33.1817 C   0  0  0  0  0  0  0  0  0  0  0  0
   15.1939    1.4590   29.5910 S   0  0  0  0  0  0  0  0  0  0  0  0
  3  1  1  0
  4  2  1  0
  6  5  1  0
  8  3  2  3
  7  9  1  6
 10  5  1  0
 11  3  1  0
 12  1  1  0
 12  2  1  0
 12  4  2  0
 13  5  1  0
 13  7  1  0
 14  7  1  0
 14  8  1  0
 15  2  2  0
M  END
>  <ID>  (1) 
conformer_0

$$$$
