
     RDKit          3D

 17 17  0  0  0  0  0  0  0  0999 V2000
   10.9243    0.4098   33.2918 C   0  0  0  0  0  0  0  0  0  0  0  0
   13.8470    0.8548   31.1170 C   0  0  0  0  0  0  0  0  0  0  0  0
   10.4165    1.6990   33.5744 C   0  0  0  0  0  0  0  0  0  0  0  0
   11.5724   -0.5494   32.7346 C   0  0  1  0  0  0  0  0  0  0  0  0
   12.4790    2.0115   32.6290 C   0  0  0  0  0  0  0  0  0  0  0  0
   14.1068   -0.5722   30.6912 N   0  0  0  0  0  0  0  0  0  0  0  0
   11.1245   -3.6145   32.7674 P   0  0  0  0  0  0  0  0  0  0  0  0
   11.0375   -4.0943   31.5587 O   0  0  0  0  0  0  0  0  0  0  0  0
   12.6409   -3.7116   33.4042 O   0  0  0  0  0  0  0  0  0  0  0  0
   11.3416    5.2518   33.5632 O   0  0  0  0  0  0  0  0  0  0  0  0
   11.7787    4.3473   33.9170 C   0  0  0  0  0  0  0  0  0  0  0  0
   10.3245   -4.4050   33.5877 O   0  0  0  0  0  0  0  0  0  0  0  0
   14.7692    0.6032   29.9499 C   0  0  0  0  0  0  0  0  0  0  0  0
   13.4262    2.9825   32.3321 C   0  0  0  0  0  0  0  0  0  0  0  0
   13.4000    0.4381   31.5801 N   0  0  0  0  0  0  0  0  0  0  0  0
   10.8832   -2.3807   32.9159 O   0  0  0  0  0  0  0  0  0  0  0  0
   11.2427    3.0392   33.7028 C   0  0  0  0  0  0  0  0  0  0  0  0
  3  1  1  0
  4  1  1  0
  6  2  2  0
  8  7  1  0
  4  9  1  1
 11 10  2  0
 12  7  1  0
 13  2  1  0
 13  6  1  0
 14  5  1  0
 15  2  1  0
 15  5  1  0
 16  4  1  0
 16  7  1  0
 17  3  1  0
 17  5  2  3
 17 11  1  0
M  END
>  <ID>  (1) 
conformer_0

$$$$
