
     RDKit          3D

 18 19  0  0  0  0  0  0  0  0999 V2000
   13.4727    2.5720   32.2603 C   0  0  0  0  0  0  0  0  0  0  0  0
   14.7753    0.7256   30.0436 C   0  0  0  0  0  0  0  0  0  0  0  0
   12.4486    3.2420   33.4371 C   0  0  0  0  0  0  0  0  0  0  0  0
   10.6398    2.1588   33.6716 C   0  0  0  0  0  0  0  0  0  0  0  0
   10.7883   -1.2760   33.0112 C   0  0  0  0  0  0  0  0  0  0  0  0
   11.0881   -3.6296   32.7933 P   0  0  0  0  0  0  0  0  0  0  0  0
   11.0446   -4.0340   31.5349 O   0  0  0  0  0  0  0  0  0  0  0  0
   12.3229   -3.4634   33.3346 O   0  0  0  0  0  0  0  0  0  0  0  0
   13.8599   -0.3087   30.7806 N   0  0  0  0  0  0  0  0  0  0  0  0
   11.0530    5.2850   33.3743 O   0  0  0  0  0  0  0  0  0  0  0  0
   11.7448    4.1268   33.8839 C   0  0  0  0  0  0  0  0  0  0  0  0
   10.2128   -4.3997   33.6183 O   0  0  0  0  0  0  0  0  0  0  0  0
   12.4702    5.0472   34.4909 O   0  0  0  0  0  0  0  0  0  0  0  0
   14.0015    1.2265   31.0954 C   0  0  0  0  0  0  0  0  0  0  0  0
   10.5301    0.2050   33.7316 C   0  0  0  0  0  0  0  0  0  0  0  0
   15.3458    1.1973   29.5977 S   0  0  0  0  0  0  0  0  0  0  0  0
   12.0594    0.4371   32.4290 C   0  0  0  0  0  0  0  0  0  0  0  0
   12.0320    1.4809   32.9211 C   0  0  0  0  0  0  0  0  0  0  0  0
  3  1  1  0
  7  6  1  0
  8  5  1  0
  8  6  1  0
  9  2  1  0
 11  3  1  0
 11 10  1  0
 12  6  1  0
 13 11  1  0
 14  1  1  0
 14  2  1  0
 14  9  2  0
 15  4  1  0
 15  5  1  0
 16  2  2  0
 18  1  1  0
 18  3  1  0
 18  4  1  0
 18 17  1  0
M  END
>  <ID>  (1) 
conformer_0

$$$$
