
     RDKit          3D

 19 18  0  0  0  0  0  0  0  0999 V2000
   12.0679    3.4263   33.4559 C   0  0  0  0  0  0  0  0  0  0  0  0
   11.0858   -1.1873   32.9924 C   0  0  0  0  0  0  0  0  0  0  0  0
   12.8170    2.8490   32.1556 C   0  0  0  0  0  0  0  0  0  0  0  0
   13.6261    0.3004   31.3697 C   0  0  0  0  0  0  0  0  0  0  0  0
   13.9724   -0.1165   31.0301 N   0  0  0  0  0  0  0  0  0  0  0  0
   11.1982   -3.7196   32.7573 P   0  0  0  0  0  0  0  0  0  0  0  0
   11.0036   -4.4494   31.8375 O   0  0  0  0  0  0  0  0  0  0  0  0
   10.8521    5.3960   34.1059 O   0  0  0  0  0  0  0  0  0  0  0  0
   12.6826   -3.7714   33.3051 O   0  0  0  0  0  0  0  0  0  0  0  0
   11.6293    4.4325   33.5228 C   0  0  0  0  0  0  0  0  0  0  0  0
   15.4146    1.7674   29.8165 S   0  0  0  0  0  0  0  0  0  0  0  0
   11.8556    1.5684   33.3356 C   0  0  0  0  0  0  0  0  0  0  0  0
   12.6287    5.5637   33.4158 N   0  0  0  0  0  0  0  0  0  0  0  0
   10.1384   -4.3304   33.8345 O   0  0  0  0  0  0  0  0  0  0  0  0
   11.8788    0.7046   32.5420 C   0  0  0  0  0  0  0  0  0  0  0  0
   11.3755   -2.3916   32.7057 O   0  0  0  0  0  0  0  0  0  0  0  0
   10.6561    0.6659   33.5032 C   0  0  0  0  0  0  0  0  0  0  0  0
   10.2621    2.8489   33.1658 C   0  0  0  0  0  0  0  0  0  0  0  0
   14.7711    0.7504   30.0994 C   0  0  0  0  0  0  0  0  0  0  0  0
  3  1  1  0
  5  4  1  0
  7  6  1  0
  9  2  2  0
 10  1  1  0
 10  8  2  0
 12  1  1  0
 13 10  1  0
 14  6  1  0
 15  4  1  0
 15 12  1  0
 16  2  1  0
 16  6  1  0
 17  2  1  0
 17 12  1  0
 18  1  1  0
 19  5  1  0
 19 11  2  0
M  END
>  <ID>  (1) 
conformer_0

$$$$
