
     RDKit          3D

 20 23  0  0  0  0  0  0  0  0999 V2000
   12.6602    3.0383   33.5082 C   0  0  0  0  0  0  0  0  0  0  0  0
   13.2950    2.3452   32.1024 C   0  0  0  0  0  0  0  0  0  0  0  0
   13.9251    1.1318   31.1175 C   0  0  0  0  0  0  0  0  0  0  0  0
   11.6417   -1.7378   32.8281 C   0  0  0  0  0  0  0  0  0  0  0  0
   13.5681   -0.1991   31.0958 N   0  0  0  0  0  0  0  0  0  0  0  0
   10.7020    2.2230   34.0418 C   0  0  0  0  0  0  0  0  0  0  0  0
   11.1883   -3.7390   32.7336 P   0  0  0  0  0  0  0  0  0  0  0  0
   11.7389    4.0805   33.5640 C   0  0  0  0  0  0  0  0  0  0  0  0
   12.6797   -3.9877   33.3101 O   0  0  0  0  0  0  0  0  0  0  0  0
   10.9583   -4.3054   31.7016 O   0  0  0  0  0  0  0  0  0  0  0  0
   11.0875    5.0275   33.5331 O   0  0  0  0  0  0  0  0  0  0  0  0
   15.2510    1.9453   30.1393 S   0  0  0  0  0  0  0  0  0  0  0  0
   10.6272    0.5872   33.7599 C   0  0  0  0  0  0  0  0  0  0  0  0
   10.1523   -4.1924   33.6770 O   0  0  0  0  0  0  0  0  0  0  0  0
   14.9756    0.7887   29.8079 C   0  0  0  0  0  0  0  0  0  0  0  0
   11.3151   -2.4474   32.9351 O   0  0  0  0  0  0  0  0  0  0  0  0
   11.0118    2.8968   32.3568 C   0  0  0  0  0  0  0  0  0  0  0  0
   14.9548   -0.1310   29.8515 N   0  0  0  0  0  0  0  0  0  0  0  0
   11.4243   -0.1131   32.6970 C   0  0  0  0  0  0  0  0  0  0  0  0
   12.0097    1.2597   32.7762 C   0  0  0  0  0  0  0  0  0  0  0  0
  2  1  1  0
  3  2  1  0
  5  3  2  0
  8  1  1  0
  9  4  2  0
 10  7  1  0
 11  8  2  0
 12  3  1  0
 13  6  1  0
 14  7  1  0
 15 12  1  0
 16  4  1  0
 16  7  1  0
 17  6  1  0
 17  8  1  0
 18  5  1  0
 18 15  1  0
 19  4  1  0
 19 13  1  0
 20  2  1  0
 20 13  1  0
 20 17  1  0
 20 19  1  0
M  END
>  <ID>  (1) 
conformer_0

$$$$
