
     RDKit          3D

 16 18  0  0  0  0  0  0  0  0999 V2000
   13.2661    2.8038   32.6216 C   0  0  0  0  0  0  0  0  0  0  0  0
   10.8520    2.7976   33.0531 C   0  0  0  0  0  0  0  0  0  0  0  0
   11.1183   -1.2260   32.9885 C   0  0  0  0  0  0  0  0  0  0  0  0
   14.6505    0.5055   30.2091 C   0  0  0  0  0  0  0  0  0  0  0  0
   14.9909    1.9777   30.1667 S   0  0  0  0  0  0  0  0  0  0  0  0
   11.1858   -3.5442   32.7381 P   0  0  0  0  0  4  0  0  0  0  0  0
   10.9212   -4.3693   32.0323 O   0  0  0  0  0  0  0  0  0  0  0  0
   10.7665    5.1985   33.4001 O   0  0  0  0  0  0  0  0  0  0  0  0
   13.8620   -0.3054   31.1360 N   0  0  0  0  0  0  0  0  0  0  0  0
   12.5212   -3.6218   33.4697 O   0  0  0  0  0  1  0  0  0  0  0  0
   11.3613    4.3672   33.5805 C   0  0  0  0  0  0  0  0  0  0  0  0
   11.9807    1.9358   32.6526 C   0  0  0  0  0  0  0  0  0  0  0  0
   11.0492    0.7261   33.3272 C   0  0  0  0  0  0  0  0  0  0  0  0
   10.6906   -2.5046   32.9901 O   0  0  0  0  0  0  0  0  0  0  0  0
   13.7526    1.3154   31.5680 C   0  0  0  0  0  0  0  0  0  0  0  0
   12.2849    0.1330   32.4951 C   0  0  0  0  0  0  0  0  0  0  0  0
  5  4  1  0
  7  6  1  0
  9  4  2  0
 10  6  1  0
 11  2  1  0
 11  8  2  0
 12  1  1  0
 12  2  1  0
 13 12  1  0
 14  3  1  0
 14  6  1  0
 15  1  1  0
 15  4  1  0
 15  5  1  0
 15  9  1  0
 16  3  1  0
 16 12  1  0
 16 13  1  0
M  RAD  2   6   2  10   2
M  END
>  <ID>  (1) 
conformer_0

$$$$
