
     RDKit          3D

 19 22  0  0  0  0  0  0  0  0999 V2000
   13.2871    3.1278   33.1799 C   0  0  0  0  0  0  0  0  0  0  0  0
   14.7433    0.5641   29.9947 C   0  0  0  0  0  0  0  0  0  0  0  0
   11.0544   -1.2595   32.8228 C   0  0  0  0  0  0  0  0  0  0  0  0
   13.2176    0.1164   31.4738 N   0  0  0  0  0  0  0  0  0  0  0  0
   11.2940    2.9840   34.1250 C   0  0  0  0  0  0  0  0  0  0  0  0
   11.3493   -3.4970   32.5821 P   0  0  0  0  0  0  0  0  0  0  0  0
   11.1824   -4.0759   31.5030 O   0  0  0  0  0  0  0  0  0  0  0  0
   12.7992   -3.8236   33.4049 O   0  0  0  0  0  0  0  0  0  0  0  0
   15.2849    1.7327   29.7856 S   0  0  0  0  0  0  0  0  0  0  0  0
   11.4595    4.0373   34.1388 C   0  0  0  0  0  0  0  0  0  0  0  0
   12.6955    1.8493   32.4886 C   0  0  0  0  0  0  0  0  0  0  0  0
   10.3529   -4.1699   33.4296 O   0  0  0  0  0  0  0  0  0  0  0  0
   11.4708    4.8059   34.6423 N   0  0  0  0  0  0  0  0  0  0  0  0
   11.7042   -2.2657   32.5934 O   0  0  0  0  0  0  0  0  0  0  0  0
   14.3504   -0.3991   30.3996 N   0  0  0  0  0  0  0  0  0  0  0  0
   13.9087    1.4106   31.1577 C   0  0  0  0  0  0  0  0  0  0  0  0
   10.8486    2.1320   32.9187 C   0  0  0  0  0  0  0  0  0  0  0  0
   11.2037    0.5521   33.4411 C   0  0  0  0  0  0  0  0  0  0  0  0
   11.9067    0.0904   32.2330 C   0  0  0  0  0  0  0  0  0  0  0  0
  7  6  1  0
  8  3  1  0
  9  2  2  0
 10  5  1  0
 11  1  1  0
 12  6  1  0
 13 10  1  0
 14  3  1  0
 14  6  1  0
 15  2  1  0
 15  4  1  0
 16  2  1  0
 16  4  1  0
 16 11  1  0
 17  5  1  0
 17 11  1  0
 18  3  1  0
 18 17  1  0
 19  3  1  0
 19  4  1  0
 19 11  1  0
 19 18  1  0
M  END
>  <ID>  (1) 
conformer_0

$$$$
