
     RDKit          3D

 16 16  0  0  0  0  0  0  0  0999 V2000
   12.1859    2.9289   32.6727 C   0  0  0  0  0  0  0  0  0  0  0  0
   13.3383    2.8174   32.4455 C   0  0  0  0  0  0  0  0  0  0  0  0
   14.6051    0.4796   30.2774 C   0  0  0  0  0  0  0  0  0  0  0  0
   11.2322   -1.4308   32.8511 C   0  0  0  0  0  0  0  0  0  0  0  0
   11.0161    0.6129   33.2141 C   0  0  0  0  0  0  0  0  0  0  0  0
   11.0766   -3.7487   32.8936 P   0  0  0  0  0  0  0  0  0  0  0  0
   13.6232   -0.4790   31.0794 N   0  0  0  0  0  0  0  0  0  0  0  0
   10.9452   -4.3379   31.8299 O   0  0  0  0  0  0  0  0  0  0  0  0
   11.9733    4.2245   33.3155 C   0  0  0  0  0  0  0  0  0  0  0  0
   12.2025   -3.6729   33.3444 O   0  0  0  0  0  0  0  0  0  0  0  0
   15.1037    1.7456   30.0226 S   0  0  0  0  0  0  0  0  0  0  0  0
    9.9715   -4.1307   33.8420 O   0  0  0  0  0  0  0  0  0  0  0  0
   11.8139    5.1646   33.3615 O   0  0  0  0  0  0  0  0  0  0  0  0
   10.9771    2.1009   33.3434 C   0  0  0  0  0  0  0  0  0  0  0  0
   13.8777    1.4133   31.3740 C   0  0  0  0  0  0  0  0  0  0  0  0
   11.9776    0.3826   32.3215 C   0  0  0  0  0  0  0  0  0  0  0  0
  2  1  1  0
  7  3  1  0
  8  6  1  0
  9  1  2  0
 10  4  1  0
 10  6  1  0
 11  3  1  0
 12  6  1  0
 13  9  2  0
 14  1  1  0
 14  5  1  0
 15  2  1  0
 15  3  2  0
 15 11  1  0
 16  4  1  0
 16  5  1  0
M  END
>  <ID>  (1) 
conformer_0

$$$$
