
     RDKit          3D

 19 21  0  0  0  0  0  0  0  0999 V2000
   13.3302    3.4562   32.3699 C   0  0  0  0  0  0  0  0  0  0  0  0
   11.9384    2.8678   33.7496 C   0  0  0  0  0  0  0  0  0  0  0  0
   13.6346    0.8356   31.4147 C   0  0  0  0  0  0  0  0  0  0  0  0
   10.5130    2.4213   32.8843 C   0  0  0  0  0  0  0  0  0  0  0  0
   11.0938   -3.6023   32.7618 P   0  0  0  0  0  0  0  0  0  0  0  0
   11.1696   -0.9128   33.1039 C   0  0  0  0  0  0  0  0  0  0  0  0
   13.7577   -0.6707   30.9298 N   0  0  0  0  0  0  0  0  0  0  0  0
   12.5882   -3.5063   33.2961 O   0  0  0  0  0  0  0  0  0  0  0  0
   11.0785   -3.9434   31.4122 O   0  0  0  0  0  0  0  0  0  0  0  0
   15.3186    1.3881   29.9039 S   0  0  0  0  0  0  0  0  0  0  0  0
   11.1485    5.1897   33.4559 O   0  0  0  0  0  0  0  0  0  0  0  0
   11.7689    4.2451   33.9298 C   0  0  0  0  0  0  0  0  0  0  0  0
   10.4446   -2.5347   33.1405 O   0  0  0  0  0  0  0  0  0  0  0  0
   10.8951    0.1839   33.4387 C   0  0  0  0  0  0  0  0  0  0  0  0
   11.9177    4.8768   34.9654 N   0  0  0  0  0  0  0  0  0  0  0  0
   10.5645   -4.6649   33.3212 O   0  0  0  0  0  0  0  0  0  0  0  0
   14.5724    0.5499   30.2734 C   0  0  0  0  0  0  0  0  0  0  0  0
   11.5293    1.1355   32.8769 C   0  0  0  0  0  0  0  0  0  0  0  0
   13.1647    2.0831   32.4537 C   0  0  0  0  0  0  0  0  0  0  0  0
  4  2  1  0
  7  3  2  0
  8  6  2  0
  9  5  1  0
 12  2  1  0
 12 11  1  0
 13  5  1  0
 13  6  1  0
 14  6  1  0
 15 11  1  0
 15 12  1  0
 16  5  1  0
 17  3  1  0
 17  7  1  0
 17 10  2  0
 18  4  1  0
 18 14  1  0
 19  1  1  0
 19  2  1  0
 19  3  1  0
 19 18  1  0
M  END
>  <ID>  (1) 
conformer_0

$$$$
