
     RDKit          3D

 14 15  0  0  0  0  0  0  0  0999 V2000
   12.3588    2.1783   32.7093 C   0  0  0  0  0  0  0  0  0  0  0  0
   13.9952    1.3998   31.1285 C   0  0  0  0  0  0  0  0  0  0  0  0
   13.1838    2.9130   32.3530 C   0  0  0  0  0  0  0  0  0  0  0  0
   11.1523   -0.9808   33.0828 C   0  0  0  0  0  0  0  0  0  0  0  0
   13.8976   -0.0987   31.0098 N   0  0  0  0  0  0  0  0  0  0  0  0
   11.1590   -3.7146   32.8118 P   0  0  0  0  0  0  0  0  0  0  0  0
   11.1062   -4.1958   31.7163 O   0  0  0  0  0  0  0  0  0  0  0  0
   12.4109   -3.4557   33.4163 O   0  0  0  0  0  0  0  0  0  0  0  0
   10.1814   -4.3615   33.8620 O   0  0  0  0  0  0  0  0  0  0  0  0
   11.0309    0.9173   33.2307 C   0  0  0  0  0  0  0  0  0  0  0  0
   11.9755    4.0251   33.4702 C   0  0  0  0  0  0  0  0  0  0  0  0
   14.7892    0.6261   29.9624 C   0  0  0  0  0  0  0  0  0  0  0  0
   10.9585    5.2383   33.4848 O   0  0  0  0  0  0  0  0  0  0  0  0
   10.7349    2.4360   33.2834 C   0  0  0  0  0  0  0  0  0  0  0  0
  3  1  1  0
  3  2  1  0
  5  2  2  0
  7  6  1  0
  8  4  1  0
  8  6  1  0
  9  6  1  0
 10  1  1  0
 10  4  1  0
 11  3  1  0
 12  2  1  0
 12  5  1  0
 13 11  1  0
 14  1  1  0
 14 10  1  0
M  END
>  <ID>  (1) 
conformer_0

$$$$
