
     RDKit          3D

 17 18  0  0  0  0  0  0  0  0999 V2000
   12.6410    2.6142   32.5925 C   0  0  0  0  0  0  0  0  0  0  0  0
   10.6646    2.2886   33.9292 C   0  0  0  0  0  0  0  0  0  0  0  0
   11.1289   -1.0633   33.1436 C   0  0  0  0  0  0  0  0  0  0  0  0
   15.0828    1.1701   29.8332 C   0  0  0  0  0  0  0  0  0  0  0  0
   14.8965    0.4529   30.0394 N   0  0  0  0  0  0  0  0  0  0  0  0
   13.5863    3.1133   31.8576 C   0  0  0  0  0  0  0  0  0  0  0  0
   11.0451   -3.7177   32.8980 P   0  0  0  0  0  0  0  0  0  0  0  0
   12.0912    3.9462   33.5070 C   0  0  0  0  0  0  0  0  0  0  0  0
   12.1807   -3.3068   33.2194 O   0  0  0  0  0  0  0  0  0  0  0  0
   10.9324   -4.2242   31.7758 O   0  0  0  0  0  0  0  0  0  0  0  0
   11.4064    4.9456   33.3156 O   0  0  0  0  0  0  0  0  0  0  0  0
   10.0324   -4.1732   33.8339 O   0  0  0  0  0  0  0  0  0  0  0  0
   15.4584    2.3952   29.5520 S   0  0  0  0  0  0  0  0  0  0  0  0
   10.4415    0.6799   33.8832 C   0  0  0  0  0  0  0  0  0  0  0  0
   13.9417    1.5578   31.1689 C   0  0  0  0  0  0  0  0  0  0  0  0
   11.7964    1.2267   32.8801 C   0  0  0  0  0  0  0  0  0  0  0  0
   13.6855   -0.1050   31.0981 N   0  0  0  0  0  0  0  0  0  0  0  0
  5  4  1  0
  6  1  1  0
  8  1  1  0
  9  3  1  0
  9  7  1  0
 10  7  1  0
 11  8  2  0
 12  7  1  0
 13  4  2  0
 14  2  1  0
 14  3  1  0
 15  4  1  0
 15  6  1  0
 16  1  1  0
 16  2  1  0
 16 14  1  0
 17  5  1  0
 17 15  2  0
M  END
>  <ID>  (1) 
conformer_0

$$$$
