
     RDKit          3D

 16 16  0  0  0  0  0  0  0  0999 V2000
   12.0619    3.0870   32.7132 C   0  0  0  0  0  0  0  0  0  0  0  0
   13.0062    2.8011   32.4860 C   0  0  0  0  0  0  0  0  0  0  0  0
   14.6571    0.3785   30.3227 C   0  0  0  0  0  0  0  0  0  0  0  0
   11.4025   -1.5116   32.8648 C   0  0  0  0  0  0  0  0  0  0  0  0
   11.2597   -3.7928   32.6838 P   0  0  0  0  0  0  0  0  0  0  0  0
   11.1432   -4.4094   31.7171 O   0  0  0  0  0  0  0  0  0  0  0  0
   10.6192    2.1787   33.5101 C   0  0  0  0  0  0  0  0  0  0  0  0
   12.2921   -3.4060   33.2500 O   0  0  0  0  0  0  0  0  0  0  0  0
   10.7741    5.2205   33.4602 O   0  0  0  0  0  0  0  0  0  0  0  0
   15.0848    1.1440   29.7096 S   0  0  0  0  0  0  0  0  0  0  0  0
   11.6277    4.3712   33.5487 C   0  0  0  0  0  0  0  0  0  0  0  0
   13.8504   -0.2911   31.1651 N   0  0  0  0  0  0  0  0  0  0  0  0
   10.1633   -4.2497   33.6384 O   0  0  0  0  0  0  0  0  0  0  0  0
   11.0108    1.0095   33.1938 C   0  0  0  0  0  0  0  0  0  0  0  0
   13.7733    1.1617   31.3320 C   0  0  0  0  0  0  0  0  0  0  0  0
   11.9210    0.2352   32.4401 C   0  0  0  0  0  0  0  0  0  0  0  0
  2  1  1  0
  6  5  1  0
  7  1  1  0
  8  4  1  0
  8  5  1  0
 10  3  2  0
 11  1  1  0
 11  9  2  0
 12  3  1  0
 13  5  1  0
 14  7  1  0
 15  2  1  0
 15  3  1  0
 15 12  2  0
 16  4  1  0
 16 14  1  0
M  END
>  <ID>  (1) 
conformer_0

$$$$
