
     RDKit          3D

 17 18  0  0  0  0  0  0  0  0999 V2000
   13.2356    2.3014   32.1371 C   0  0  2  0  0  0  0  0  0  0  0  0
   11.6324    1.4250   33.0227 C   0  0  1  0  0  0  0  0  0  0  0  0
   13.5517    0.7194   31.3310 C   0  0  0  0  0  0  0  0  0  0  0  0
   11.4282   -0.9628   32.6013 C   0  0  0  0  0  0  0  0  0  0  0  0
   13.9806   -0.1996   30.7545 N   0  0  0  0  0  0  0  0  0  0  0  0
   15.3030    1.8200   29.6811 S   0  0  0  0  0  3  0  0  0  0  0  0
   10.8802    2.4625   33.9135 C   0  0  1  0  0  0  0  0  0  0  0  0
   11.2495   -3.7880   32.5800 P   0  0  0  0  0  0  0  0  0  0  0  0
   10.9203   -4.3208   31.5341 O   0  0  0  0  0  0  0  0  0  0  0  0
   11.7256    4.0859   33.7441 C   0  0  2  0  0  0  0  0  0  0  0  0
   12.3776   -3.7217   33.0493 O   0  0  0  0  0  0  0  0  0  0  0  0
   10.1903   -4.1601   33.6098 O   0  0  0  0  0  0  0  0  0  0  0  0
   10.7071    0.2002   33.5400 C   0  0  0  0  0  0  0  0  0  0  0  0
   14.7314    0.7024   30.0262 C   0  0  0  0  0  3  0  0  0  0  0  0
   11.5249    5.0207   33.6787 O   0  0  0  0  0  0  0  0  0  0  0  0
   13.6729    3.4225   33.0050 C   0  0  0  0  0  0  0  0  0  0  0  0
   11.5081    3.0664   32.2234 C   0  0  2  0  0  0  0  0  0  0  0  0
  3  1  1  0
  5  3  1  0
  7  2  1  1
  9  8  1  0
 10  7  1  0
 11  4  1  0
 11  8  1  0
 12  8  1  0
  2 13  1  6
 13  4  1  0
 14  5  1  0
 14  6  2  3
 10 15  1  6
  1 16  1  1
 17  1  1  1
 17  2  1  0
 17  7  1  0
 17 10  1  0
M  RAD  2   6   2  14   2
M  END
>  <ID>  (1) 
conformer_0

$$$$
