
     RDKit          3D

 15 14  0  0  0  0  0  0  0  0999 V2000
   13.0979    3.2050   32.3299 C   0  0  0  0  0  0  0  0  0  0  0  0
   12.1336    2.5810   32.4049 C   0  0  0  0  0  0  0  0  0  0  0  0
   10.9343   -1.2603   33.1591 C   0  0  0  0  0  0  0  0  0  0  0  0
   13.7305    0.4387   31.3055 N   0  0  0  0  0  0  0  0  0  0  0  0
   11.0837   -3.6734   32.7032 P   0  0  0  0  0  0  0  0  0  0  0  0
   14.4677    1.2908   30.4237 C   0  0  0  0  0  3  0  0  0  0  0  0
   10.7688   -4.3773   31.6533 O   0  0  0  0  0  0  0  0  0  0  0  0
   11.4790    5.0905   33.9016 O   0  0  0  0  0  0  0  0  0  0  0  0
   11.7766    4.2467   33.9070 C   0  0  0  0  0  0  0  0  0  0  0  0
   11.9896   -2.9926   32.9389 O   0  0  0  0  0  0  0  0  0  0  0  0
   11.0349    2.4317   33.4972 C   0  0  2  0  0  0  0  0  0  0  0  0
   10.2334   -3.9481   33.7354 O   0  0  0  0  0  0  0  0  0  0  0  0
   15.3442    1.9077   29.8527 S   0  0  0  0  0  3  0  0  0  0  0  0
   12.0099    0.1533   32.4138 C   0  0  0  0  0  0  0  0  0  0  0  0
   10.9846    0.9590   33.2297 C   0  0  0  0  0  0  0  0  0  0  0  0
  2  1  2  3
  6  4  1  0
  7  5  1  0
  9  8  2  0
 10  3  1  0
 10  5  1  0
 11  2  1  0
 11  9  1  1
 12  5  1  0
 13  6  2  3
 14  3  1  0
 14  4  1  0
 15 11  1  0
 15 14  2  3
M  RAD  2   6   2  13   2
M  END
>  <ID>  (1) 
conformer_0

$$$$
