
     RDKit          3D

 19 22  0  0  0  0  0  0  0  0999 V2000
   12.7363    3.4838   32.5126 C   0  0  0  0  0  0  0  0  0  0  0  0
   13.8258    2.9150   32.1453 C   0  0  0  0  0  0  0  0  0  0  0  0
   10.8488   -1.3557   33.2667 C   0  0  0  0  0  0  0  0  0  0  0  0
   14.2113    1.7629   31.1280 C   0  0  0  0  0  0  0  0  0  0  0  0
   14.5611   -0.2093   30.3926 N   0  0  0  0  0  0  0  0  0  0  0  0
   11.0683   -3.7568   32.6871 P   0  0  0  0  0  0  0  0  0  0  0  0
   10.7896   -4.3324   31.6185 O   0  0  0  0  0  0  0  0  0  0  0  0
   10.9923    5.5431   32.8185 O   0  0  0  0  0  0  0  0  0  0  0  0
   11.7129    1.9418   32.6690 C   0  0  0  0  0  0  0  0  0  0  0  0
   12.6510   -3.9747   33.0645 O   0  0  0  0  0  0  0  0  0  0  0  0
   11.5467    4.4342   33.5418 C   0  0  0  0  0  0  0  0  0  0  0  0
   15.3479    1.5507   29.6187 S   0  0  0  0  0  0  0  0  0  0  0  0
   10.1997   -4.4635   33.7225 O   0  0  0  0  0  0  0  0  0  0  0  0
   11.8354    0.1946   32.6514 C   0  0  0  0  0  0  0  0  0  0  0  0
   10.8507    0.8079   33.6567 C   0  0  0  0  0  0  0  0  0  0  0  0
   10.9151    2.8887   33.6389 C   0  0  0  0  0  0  0  0  0  0  0  0
   11.2683   -2.5282   32.7098 O   0  0  0  0  0  0  0  0  0  0  0  0
   14.6425    0.5229   30.0769 C   0  0  0  0  0  0  0  0  0  0  0  0
   13.3178    0.3033   31.6877 N   0  0  0  0  0  0  0  0  0  0  0  0
  2  1  1  0
  4  2  1  0
  7  6  1  0
  9  1  1  0
 10  3  1  0
 11  1  1  0
 11  8  1  0
 12  4  1  0
 13  6  1  0
 14  3  1  0
 14  9  1  0
 15  9  1  0
 15 14  1  0
 16  9  1  0
 16 11  1  0
 17  3  1  0
 17  6  1  0
 18  5  1  0
 18 12  1  0
 19  4  1  0
 19  5  1  0
 19 14  1  0
M  END
>  <ID>  (1) 
conformer_0

$$$$
