
     RDKit          3D

 12 12  0  0  0  0  0  0  0  0999 V2000
   61.1938   -8.7586  -69.7561 O   0  0  0  0  0  0  0  0  0  0  0  0
   61.4938   -9.5586  -68.9561 C   0  0  0  0  0  0  0  0  0  0  0  0
   60.7938   -9.5586  -67.7561 O   0  0  0  0  0  0  0  0  0  0  0  0
   62.8938   -9.3586  -68.5561 C   0  0  0  0  0  0  0  0  0  0  0  0
   62.9938   -8.1586  -67.7561 N   0  0  0  0  0  0  0  0  0  0  0  0
   64.1937   -7.5586  -67.1561 C   0  0  0  0  0  0  0  0  0  0  0  0
   64.1937   -6.0586  -67.1561 C   0  0  0  0  0  0  0  0  0  0  0  0
   65.3937   -5.4586  -67.7561 C   0  0  0  0  0  0  0  0  0  0  0  0
   65.3937   -4.0586  -67.7561 C   0  0  0  0  0  0  0  0  0  0  0  0
   66.6937   -3.3586  -67.9561 C   0  0  0  0  0  0  0  0  0  0  0  0
   67.5938   -4.4586  -68.3561 C   0  0  0  0  0  0  0  0  0  0  0  0
   67.4938   -4.1586  -66.9561 O   0  0  0  0  0  0  0  0  0  0  0  0
  2  1  1  0
  3  2  1  0
  4  2  1  0
  5  4  1  0
  6  5  1  0
  7  6  1  0
  8  7  1  0
  9  8  1  0
 10  9  1  0
 11 10  1  0
 12 10  1  0
 12 11  1  0
M  END
>  <ID>  (1) 
conformer_0

$$$$
