
     RDKit          3D

  7  6  0  0  0  0  0  0  0  0999 V2000
   61.1938   -8.7586  -69.7561 O   0  0  0  0  0  0  0  0  0  0  0  0
   61.4938   -9.5586  -68.9561 C   0  0  0  0  0  0  0  0  0  0  0  0
   60.6938   -9.7586  -67.8561 O   0  0  0  0  0  0  0  0  0  0  0  0
   62.7938   -9.9586  -68.4561 C   0  0  0  0  0  0  0  0  0  0  0  0
   63.3937   -8.8586  -67.8561 N   0  0  0  0  0  0  0  0  0  0  0  0
   64.5938   -8.2586  -67.6561 C   0  0  0  0  0  0  0  0  0  0  0  0
   64.5938   -7.1586  -66.7561 C   0  0  0  0  0  0  0  0  0  0  0  0
  2  1  2  0
  3  2  1  0
  4  2  1  0
  5  4  1  0
  6  5  2  3
  7  6  1  0
M  END
>  <ID>  (1) 
conformer_0

$$$$
