
     RDKit          3D

 10 10  0  0  0  0  0  0  0  0999 V2000
   61.1938   -8.7586  -69.7561 O   0  0  0  0  0  0  0  0  0  0  0  0
   61.4938   -9.5586  -68.9561 C   0  0  0  0  0  0  0  0  0  0  0  0
   60.6938   -9.8586  -68.0561 O   0  0  0  0  0  0  0  0  0  0  0  0
   62.8938   -9.5586  -68.4561 C   0  0  0  0  0  0  0  0  0  0  0  0
   63.1938   -8.2586  -67.9561 N   0  0  0  0  0  0  0  0  0  0  0  0
   64.4938   -8.1586  -67.2561 C   0  0  0  0  0  0  0  0  0  0  0  0
   64.7938   -6.9586  -66.7561 C   0  0  0  0  0  0  0  0  0  0  0  0
   64.2938   -5.7586  -67.3561 C   0  0  0  0  0  0  0  0  0  0  0  0
   64.0938   -6.1586  -68.7561 C   0  0  0  0  0  0  0  0  0  0  0  0
   63.3938   -7.2586  -69.0561 C   0  0  0  0  0  0  0  0  0  0  0  0
  2  1  2  0
  3  2  1  0
  4  2  1  0
  5  4  1  0
  6  5  1  0
  7  6  1  0
  8  7  1  0
  9  8  1  0
 10  5  1  0
 10  9  1  0
M  END
>  <ID>  (1) 
conformer_0

$$$$
