
     RDKit          3D

  9  9  0  0  0  0  0  0  0  0999 V2000
   61.1938   -8.7586  -69.7561 O   0  0  0  0  0  0  0  0  0  0  0  0
   61.4938   -9.5586  -68.9561 C   0  0  0  0  0  0  0  0  0  0  0  0
   60.6938   -9.6586  -68.0561 O   0  0  0  0  0  0  0  0  0  0  0  0
   62.8938   -9.7586  -68.7561 C   0  0  0  0  0  0  0  0  0  0  0  0
   63.3938   -8.5586  -68.0561 N   0  0  0  0  0  0  0  0  0  0  0  0
   64.5938   -8.1586  -67.6561 C   0  0  0  0  0  0  0  0  0  0  0  0
   64.7937   -7.0586  -66.7561 C   0  0  0  0  0  0  0  0  0  0  0  0
   64.5938   -8.1586  -66.1561 N   0  0  0  0  0  0  0  0  0  0  0  0
   65.2937   -5.9586  -66.7561 O   0  0  0  0  0  0  0  0  0  0  0  0
  2  1  2  0
  3  2  1  0
  4  2  1  0
  5  4  1  0
  6  5  1  0
  7  6  1  0
  8  6  1  0
  8  7  1  0
  9  7  2  0
M  END
>  <ID>  (1) 
conformer_0

$$$$
