
     RDKit          3D

 15 16  0  0  0  0  0  0  0  0999 V2000
   61.1938   -8.7586  -69.7561 O   0  0  0  0  0  0  0  0  0  0  0  0
   61.4938   -9.5586  -68.9561 C   0  0  0  0  0  0  0  0  0  0  0  0
   60.6938   -9.8586  -67.9561 O   0  0  0  0  0  0  0  0  0  0  0  0
   62.8938   -9.3586  -68.5561 C   0  0  0  0  0  0  0  0  0  0  0  0
   62.9938   -8.1586  -67.8561 N   0  0  0  0  0  0  0  0  0  0  0  0
   64.2938   -7.8586  -67.3561 C   0  0  0  0  0  0  0  0  0  0  0  0
   65.1938   -6.7586  -67.6561 C   0  0  0  0  0  0  0  0  0  0  0  0
   64.4938   -5.4586  -67.7561 C   0  0  0  0  0  0  0  0  0  0  0  0
   64.5938   -6.1586  -69.0561 C   0  0  0  0  0  0  0  0  0  0  0  0
   65.2938   -4.2586  -67.6561 C   0  0  0  0  0  0  0  0  0  0  0  0
   64.4938   -8.4586  -66.3561 O   0  0  0  0  0  0  0  0  0  0  0  0
   66.6938   -4.6586  -67.6561 C   0  0  0  0  0  0  0  0  0  0  0  0
   67.5938   -5.6586  -68.0561 C   0  0  0  0  0  0  0  0  0  0  0  0
   66.6938   -5.1586  -69.0561 C   0  0  0  0  0  0  0  0  0  0  0  0
   67.2938   -4.9586  -70.0561 O   0  0  0  0  0  0  0  0  0  0  0  0
  2  1  1  0
  3  2  1  0
  4  2  1  0
  5  4  1  0
  6  5  1  0
  7  6  1  0
  8  7  1  0
  9  7  1  0
  9  8  1  0
 10  8  1  0
 11  6  2  0
 12 10  1  0
 13 12  1  0
 14 12  1  0
 14 13  1  0
 15 14  1  0
M  END
>  <ID>  (1) 
conformer_0

$$$$
