
     RDKit          3D

  6  5  0  0  0  0  0  0  0  0999 V2000
   62.9386   -6.8866  -66.6628 O   0  0  0  0  0  0  0  0  0  0  0  0
   64.1386   -7.6866  -66.8627 C   0  0  0  0  0  0  0  0  0  0  0  0
   65.2386   -6.7866  -67.2627 C   0  0  0  0  0  0  0  0  0  0  0  0
   64.9386   -5.3866  -67.6628 C   0  0  0  0  0  0  0  0  0  0  0  0
   65.9386   -4.7866  -68.5628 C   0  0  0  0  0  0  0  0  0  0  0  0
   67.3386   -5.0866  -68.1628 C   0  0  0  0  0  0  0  0  0  0  0  0
  2  1  1  0
  3  2  1  0
  4  3  1  0
  5  4  1  0
  6  5  1  0
M  END
>  <ID>  (1) 
conformer_0

$$$$
