
     RDKit          3D

 10 10  0  0  0  0  0  0  0  0999 V2000
   61.1938   -8.7586  -69.7561 O   0  0  0  0  0  0  0  0  0  0  0  0
   61.4938   -9.5586  -68.9561 C   0  0  0  0  0  0  0  0  0  0  0  0
   60.6938   -9.6586  -68.0561 O   0  0  0  0  0  0  0  0  0  0  0  0
   62.8938   -9.5586  -68.4561 C   0  0  0  0  0  0  0  0  0  0  0  0
   63.2938   -8.2586  -68.0561 N   0  0  0  0  0  0  0  0  0  0  0  0
   64.5938   -8.0586  -67.4561 C   0  0  0  0  0  0  0  0  0  0  0  0
   64.8938   -6.7586  -66.8561 C   0  0  0  0  0  0  0  0  0  0  0  0
   64.2938   -5.6586  -67.6561 C   0  0  0  0  0  0  0  0  0  0  0  0
   64.3938   -6.1586  -69.0561 C   0  0  0  0  0  0  0  0  0  0  0  0
   63.1938   -6.1586  -68.4561 N   0  0  0  0  0  0  0  0  0  0  0  0
  2  1  1  0
  3  2  1  0
  4  2  1  0
  5  4  1  0
  6  5  2  3
  7  6  1  0
  8  7  1  0
  9  8  1  0
 10  8  1  0
 10  9  1  0
M  END
>  <ID>  (1) 
conformer_0

$$$$
