
     RDKit          3D

 11 11  0  0  0  0  0  0  0  0999 V2000
   61.1938   -8.7586  -69.7561 O   0  0  0  0  0  0  0  0  0  0  0  0
   61.4938   -9.5586  -68.9561 C   0  0  0  0  0  0  0  0  0  0  0  0
   60.6938   -9.7586  -67.8561 O   0  0  0  0  0  0  0  0  0  0  0  0
   62.8938   -9.8586  -68.6561 C   0  0  0  0  0  0  0  0  0  0  0  0
   63.4938   -8.9586  -67.8561 N   0  0  0  0  0  0  0  0  0  0  0  0
   64.4938   -8.0586  -67.9561 C   0  0  0  0  0  0  0  0  0  0  0  0
   64.6937   -7.1586  -66.8561 C   0  0  0  0  0  0  0  0  0  0  0  0
   65.2937   -5.8586  -67.2561 C   0  0  0  0  0  0  0  0  0  0  0  0
   64.7937   -5.6586  -68.6561 C   0  0  0  0  0  0  0  0  0  0  0  0
   64.0938   -6.8586  -69.0561 C   0  0  0  0  0  0  0  0  0  0  0  0
   63.6938  -10.0586  -69.7561 O   0  0  0  0  0  0  0  0  0  0  0  0
  2  1  2  0
  3  2  1  0
  4  2  1  0
  5  4  1  0
  6  5  1  0
  7  6  1  0
  8  7  1  0
  9  8  1  0
 10  6  1  0
 10  9  1  0
 11  4  1  0
M  END
>  <ID>  (1) 
conformer_0

$$$$
