
     RDKit          3D

 13 14  0  0  0  0  0  0  0  0999 V2000
   60.9814   -8.8724  -69.7006 O   0  0  0  0  0  0  0  0  0  0  0  0
   61.7814   -9.6724  -69.2006 C   0  0  0  0  0  0  0  0  0  0  0  0
   60.9814   -9.8724  -68.0006 O   0  0  0  0  0  0  0  0  0  0  0  0
   63.0814   -9.0724  -68.8006 C   0  0  0  0  0  0  0  0  0  0  0  0
   63.1814   -7.9724  -67.9006 N   0  0  0  0  0  0  0  0  0  0  0  0
   64.5814   -7.7724  -67.5006 C   0  0  0  0  0  0  0  0  0  0  0  0
   64.7813   -6.4724  -66.9006 C   0  0  0  0  0  0  0  0  0  0  0  0
   64.5814   -5.1724  -67.6006 C   0  0  0  0  0  0  0  0  0  0  0  0
   63.6814   -5.4724  -68.7006 C   0  0  0  0  0  0  0  0  0  0  0  0
   62.5814   -6.0724  -69.1006 O   0  0  0  0  0  0  0  0  0  0  0  0
   63.7813   -6.5724  -69.5006 C   0  0  0  0  0  0  0  0  0  0  0  0
   62.4814   -7.2724  -66.8006 O   0  0  0  0  0  0  0  0  0  0  0  0
   63.5813   -7.9724  -70.0006 C   0  0  0  0  0  0  0  0  0  0  0  0
  2  1  1  0
  3  2  1  0
  4  2  1  0
  5  4  1  0
  6  5  1  0
  7  6  1  0
  8  7  1  0
  9  8  1  0
 10  9  1  0
 11  9  1  0
 11 10  1  0
 12  5  1  0
 13  4  1  0
 13 11  1  0
M  END
>  <ID>  (1) 
conformer_0

$$$$
