
     RDKit          3D

 10  9  0  0  0  0  0  0  0  0999 V2000
   61.1938   -8.7586  -69.7561 O   0  0  0  0  0  0  0  0  0  0  0  0
   61.4938   -9.5586  -68.9561 C   0  0  0  0  0  0  0  0  0  0  0  0
   60.6938   -9.8586  -67.9561 O   0  0  0  0  0  0  0  0  0  0  0  0
   62.8938   -9.3586  -68.5561 C   0  0  0  0  0  0  0  0  0  0  0  0
   62.9938   -8.1586  -67.8561 N   0  0  0  0  0  0  0  0  0  0  0  0
   64.2938   -7.8586  -67.3561 C   0  0  0  0  0  0  0  0  0  0  0  0
   65.1938   -6.7586  -67.6561 C   0  0  0  0  0  0  0  0  0  0  0  0
   64.8938   -5.9586  -68.8561 C   0  0  0  0  0  0  0  0  0  0  0  0
   65.5938   -4.6586  -68.9561 C   0  0  0  0  0  0  0  0  0  0  0  0
   65.3938   -3.5586  -68.0561 C   0  0  0  0  0  0  0  0  0  0  0  0
  2  1  1  0
  3  2  1  0
  4  2  1  0
  5  4  1  0
  6  5  1  0
  7  6  2  3
  8  7  1  0
  9  8  1  0
 10  9  1  0
M  END
>  <ID>  (1) 
conformer_0

$$$$
