
     RDKit          3D

  5  4  0  0  0  0  0  0  0  0999 V2000
   60.4379  -11.0967  -68.1854 O   0  0  0  0  0  0  0  0  0  0  0  0
   61.4379  -10.0967  -68.6854 P   0  0  0  0  0  4  0  0  0  0  0  0
   61.0379   -8.9967  -69.5854 O   0  0  0  0  0  1  0  0  0  0  0  0
   62.7379  -10.1967  -67.9854 O   0  0  0  0  0  0  0  0  0  0  0  0
   60.4379   -9.8967  -67.5854 O   0  0  0  0  0  0  0  0  0  0  0  0
  2  1  1  0
  3  2  2  0
  4  2  1  0
  5  2  1  0
M  END
>  <ID>  (1) 
conformer_0

$$$$
