
     RDKit          3D

 12 13  0  0  0  0  0  0  0  0999 V2000
   61.1938   -8.7586  -69.7561 O   0  0  0  0  0  0  0  0  0  0  0  0
   62.1938   -9.3586  -69.6561 C   0  0  0  0  0  0  0  0  0  0  0  0
   63.2938   -8.8586  -68.8561 C   0  0  0  0  0  0  0  0  0  0  0  0
   63.3937   -7.5586  -68.1561 C   0  0  0  0  0  0  0  0  0  0  0  0
   64.3938   -7.5586  -67.0561 C   0  0  0  0  0  0  0  0  0  0  0  0
   65.0938   -6.2586  -67.0561 C   0  0  0  0  0  0  0  0  0  0  0  0
   64.4938   -5.2586  -67.9561 C   0  0  0  0  0  0  0  0  0  0  0  0
   65.3938   -6.0586  -68.5561 O   0  0  0  0  0  0  0  0  0  0  0  0
   63.7938   -7.5586  -69.3561 O   0  0  0  0  0  0  0  0  0  0  0  0
   62.3938  -10.0586  -70.8561 O   0  0  0  0  0  0  0  0  0  0  0  0
   64.8938   -3.8586  -67.7561 C   0  0  0  0  0  0  0  0  0  0  0  0
   64.5938   -3.1586  -68.8561 O   0  0  0  0  0  0  0  0  0  0  0  0
  2  1  2  0
  3  2  1  0
  4  3  1  0
  5  4  1  0
  6  5  1  0
  7  6  1  0
  8  6  1  0
  8  7  1  0
  9  3  1  0
  9  4  1  0
 10  2  1  0
 11  7  1  0
 12 11  1  0
M  END
>  <ID>  (1) 
conformer_0

$$$$
