
     RDKit          3D

 13 14  0  0  0  0  0  0  0  0999 V2000
   61.1938   -8.7586  -69.7561 O   0  0  0  0  0  0  0  0  0  0  0  0
   61.4938   -9.5586  -68.9561 C   0  0  0  0  0  0  0  0  0  0  0  0
   60.5938   -9.8586  -67.9561 O   0  0  0  0  0  0  0  0  0  0  0  0
   62.8938   -9.6586  -68.4561 C   0  0  0  0  0  0  0  0  0  0  0  0
   63.3938   -8.5586  -67.7561 N   0  0  0  0  0  0  0  0  0  0  0  0
   64.5938   -7.8586  -67.9561 C   0  0  0  0  0  0  0  0  0  0  0  0
   64.7937   -6.7586  -67.0561 C   0  0  0  0  0  0  0  0  0  0  0  0
   65.7937   -5.7586  -67.5561 C   0  0  0  0  0  0  0  0  0  0  0  0
   65.4937   -5.6586  -68.9561 C   0  0  0  0  0  0  0  0  0  0  0  0
   64.1937   -6.1586  -69.4561 C   0  0  0  0  0  0  0  0  0  0  0  0
   63.7938  -10.0586  -69.3561 O   0  0  0  0  0  0  0  0  0  0  0  0
   63.6937   -7.5586  -69.0561 C   0  0  0  0  0  0  0  0  0  0  0  0
   66.4937   -5.3586  -69.7561 O   0  0  0  0  0  0  0  0  0  0  0  0
  2  1  2  0
  3  2  1  0
  4  2  1  0
  5  4  1  0
  6  5  1  0
  7  6  1  0
  8  7  1  0
  9  8  1  0
 10  9  1  0
 11  4  1  0
 12  5  1  0
 12  6  1  0
 12 10  1  0
 13  9  1  0
M  END
>  <ID>  (1) 
conformer_0

$$$$
