
     RDKit          3D

  6  6  0  0  0  0  0  0  0  0999 V2000
   67.7703   -2.7967  -68.4527 C   0  0  0  0  0  0  0  0  0  0  0  0
   68.3703   -3.8967  -68.0527 N   0  0  0  0  0  0  0  0  0  0  0  0
   67.6703   -1.7967  -67.3527 C   0  0  0  0  0  0  0  0  0  0  0  0
   67.8703   -2.3967  -66.0527 C   0  0  0  0  0  0  0  0  0  0  0  0
   69.1703   -2.8967  -65.9527 C   0  0  0  0  0  0  0  0  0  0  0  0
   69.3703   -3.7967  -67.0527 C   0  0  0  0  0  0  0  0  0  0  0  0
  2  1  2  0
  3  1  1  0
  4  3  2  0
  5  4  1  0
  6  2  1  0
  6  5  2  0
M  END
>  <ID>  (1) 
conformer_0

$$$$
