
     RDKit          3D

 10 11  0  0  0  0  0  0  0  0999 V2000
   60.9814   -8.8724  -69.7006 O   0  0  0  0  0  0  0  0  0  0  0  0
   61.7814   -9.6724  -69.2006 C   0  0  0  0  0  0  0  0  0  0  0  0
   62.9814   -8.9724  -68.8006 C   0  0  0  0  0  0  0  0  0  0  0  0
   60.8814  -10.0724  -68.1006 O   0  0  0  0  0  0  0  0  0  0  0  0
   63.6814   -9.4724  -67.7006 N   0  0  0  0  0  0  0  0  0  0  0  0
   63.3814   -7.6724  -69.4006 C   0  0  0  0  0  0  0  0  0  0  0  0
   64.4814   -6.9724  -68.8006 C   0  0  0  0  0  0  0  0  0  0  0  0
   64.8814   -7.2724  -67.5006 C   0  0  0  0  0  0  0  0  0  0  0  0
   64.2814   -8.4724  -66.9006 C   0  0  0  0  0  0  0  0  0  0  0  0
   63.5814   -7.4724  -66.9006 O   0  0  0  0  0  0  0  0  0  0  0  0
  2  1  1  0
  3  2  1  0
  4  2  1  0
  5  3  1  0
  6  3  2  0
  7  6  1  0
  8  7  1  0
  9  5  1  0
  9  8  1  0
 10  8  1  0
 10  9  1  0
M  END
>  <ID>  (1) 
conformer_0

$$$$
