
     RDKit          3D

 12 11  0  0  0  0  0  0  0  0999 V2000
   61.1938   -8.7586  -69.7561 O   0  0  0  0  0  0  0  0  0  0  0  0
   61.4938   -9.5586  -68.9561 C   0  0  0  0  0  0  0  0  0  0  0  0
   60.6938   -9.6586  -68.0561 O   0  0  0  0  0  0  0  0  0  0  0  0
   62.8938   -9.5586  -68.4561 C   0  0  0  0  0  0  0  0  0  0  0  0
   63.2938   -8.2586  -68.0561 N   0  0  0  0  0  0  0  0  0  0  0  0
   64.3938   -8.0586  -67.1561 C   0  0  0  0  0  0  0  0  0  0  0  0
   64.8938   -6.6586  -67.2561 C   0  0  0  0  0  0  0  0  0  0  0  0
   63.9938   -5.8586  -68.0561 C   0  0  0  0  0  0  0  0  0  0  0  0
   63.8938   -6.1586  -69.4561 C   0  0  0  0  0  0  0  0  0  0  0  0
   63.2938   -5.1586  -70.3561 C   0  0  0  0  0  0  0  0  0  0  0  0
   62.0938   -5.4586  -71.0561 C   0  0  0  0  0  0  0  0  0  0  0  0
   60.7938   -4.9586  -70.7561 C   0  0  0  0  0  0  0  0  0  0  0  0
  2  1  1  0
  3  2  1  0
  4  2  1  0
  5  4  1  0
  6  5  1  0
  7  6  1  0
  8  7  1  0
  9  8  2  3
 10  9  1  0
 11 10  1  0
 12 11  1  0
M  END
>  <ID>  (1) 
conformer_0

$$$$
