
     RDKit          3D

  5  4  0  0  0  0  0  0  0  0999 V2000
   60.6878   -9.5194  -67.6799 O   0  0  0  0  0  0  0  0  0  0  0  0
   61.8878   -9.1194  -68.2799 N   0  0  0  0  0  0  0  0  0  0  0  0
   61.8878   -9.2194  -69.6799 C   0  0  0  0  0  0  0  0  0  0  0  0
   61.0878   -8.3194  -70.2799 O   0  0  0  0  0  0  0  0  0  0  0  0
   63.1878   -9.4194  -70.3799 C   0  0  0  0  0  0  0  0  0  0  0  0
  2  1  1  0
  3  2  1  0
  4  3  2  0
  5  3  1  0
M  END
>  <ID>  (1) 
conformer_0

$$$$
