
     RDKit          3D

  8  8  0  0  0  0  0  0  0  0999 V2000
   61.1938   -8.7586  -69.7561 O   0  0  0  0  0  0  0  0  0  0  0  0
   61.4938   -9.5586  -68.9561 C   0  0  0  0  0  0  0  0  0  0  0  0
   60.5938   -9.8586  -67.9561 O   0  0  0  0  0  0  0  0  0  0  0  0
   62.8938   -9.6586  -68.4561 C   0  0  0  0  0  0  0  0  0  0  0  0
   63.8938   -8.5586  -68.6561 C   0  0  0  0  0  0  0  0  0  0  0  0
   62.8938   -8.3586  -67.7561 N   0  0  0  0  0  0  0  0  0  0  0  0
   63.8938   -8.0586  -69.7561 O   0  0  0  0  0  0  0  0  0  0  0  0
   62.7938   -7.3586  -66.8561 O   0  0  0  0  0  0  0  0  0  0  0  0
  2  1  2  0
  3  2  1  0
  4  2  1  0
  5  4  1  0
  6  4  1  0
  6  5  1  0
  7  5  1  0
  8  6  1  0
M  END
>  <ID>  (1) 
conformer_0

$$$$
