
     RDKit          3D

 11 11  0  0  0  0  0  0  0  0999 V2000
   61.1938   -8.7586  -69.7561 O   0  0  0  0  0  0  0  0  0  0  0  0
   62.2938   -9.1586  -69.5561 C   0  0  0  0  0  0  0  0  0  0  0  0
   63.0938   -8.6586  -68.4561 C   0  0  0  0  0  0  0  0  0  0  0  0
   64.2937   -7.8586  -68.4561 C   0  0  0  0  0  0  0  0  0  0  0  0
   64.6937   -7.5586  -67.0561 C   0  0  0  0  0  0  0  0  0  0  0  0
   63.4938   -9.7586  -67.6561 N   0  0  0  0  0  0  0  0  0  0  0  0
   64.2937   -6.5586  -69.1561 C   0  0  0  0  0  0  0  0  0  0  0  0
   65.3937   -5.7586  -68.7561 C   0  0  0  0  0  0  0  0  0  0  0  0
   64.0938   -6.2586  -66.6561 C   0  0  0  0  0  0  0  0  0  0  0  0
   64.7937   -5.2586  -67.4561 C   0  0  0  0  0  0  0  0  0  0  0  0
   62.8937  -10.2586  -70.0561 O   0  0  0  0  0  0  0  0  0  0  0  0
  2  1  2  0
  3  2  1  0
  4  3  1  0
  5  4  1  0
  6  3  1  0
  7  4  1  0
  8  7  1  0
  9  5  1  0
 10  8  1  0
 10  9  1  0
 11  2  1  0
M  END
>  <ID>  (1) 
conformer_0

$$$$
