
     RDKit          3D

  9  9  0  0  0  0  0  0  0  0999 V2000
   61.2793   -8.2801  -69.9964 O   0  0  0  0  0  0  0  0  0  0  0  0
   61.7793   -9.1801  -69.2964 C   0  0  0  0  0  0  0  0  0  0  0  0
   60.9793   -9.4801  -68.0964 O   0  0  0  0  0  0  0  0  0  0  0  0
   63.0793   -8.7801  -68.6964 C   0  0  0  0  0  0  0  0  0  0  0  0
   63.5793   -9.4801  -67.5964 N   0  0  0  0  0  0  0  0  0  0  0  0
   63.8793   -7.7801  -69.3964 C   0  0  0  0  0  0  0  0  0  0  0  0
   64.5793   -6.7801  -68.6964 C   0  0  0  0  0  0  0  0  0  0  0  0
   64.9793   -6.9801  -67.2964 C   0  0  0  0  0  0  0  0  0  0  0  0
   64.5793   -8.3801  -66.9964 C   0  0  0  0  0  0  0  0  0  0  0  0
  2  1  1  0
  3  2  1  0
  4  2  1  0
  5  4  1  0
  6  4  1  0
  7  6  1  0
  8  7  1  0
  9  5  1  0
  9  8  1  0
M  END
>  <ID>  (1) 
conformer_0

$$$$
