
     RDKit          3D

 10 10  0  0  0  0  0  0  0  0999 V2000
   61.1938   -8.7586  -69.7561 O   0  0  0  0  0  0  0  0  0  0  0  0
   61.4938   -9.5586  -68.9561 C   0  0  0  0  0  0  0  0  0  0  0  0
   60.5938   -9.6586  -67.8561 O   0  0  0  0  0  0  0  0  0  0  0  0
   62.7938   -9.8586  -68.7561 C   0  0  0  0  0  0  0  0  0  0  0  0
   63.3937   -8.8586  -67.8561 N   0  0  0  0  0  0  0  0  0  0  0  0
   64.3938   -8.0586  -68.0561 C   0  0  0  0  0  0  0  0  0  0  0  0
   64.9938   -7.2586  -67.0561 C   0  0  0  0  0  0  0  0  0  0  0  0
   65.4938   -5.9586  -67.4561 C   0  0  0  0  0  0  0  0  0  0  0  0
   65.0938   -5.7586  -68.8561 C   0  0  0  0  0  0  0  0  0  0  0  0
   64.2937   -6.9586  -69.2561 C   0  0  0  0  0  0  0  0  0  0  0  0
  2  1  2  0
  3  2  1  0
  4  2  1  0
  5  4  1  0
  6  5  1  0
  7  6  1  0
  8  7  2  0
  9  8  1  0
 10  6  1  0
 10  9  2  0
M  END
>  <ID>  (1) 
conformer_0

$$$$
