
     RDKit          3D

 13 13  0  0  0  0  0  0  0  0999 V2000
   61.1938   -8.7586  -69.7561 O   0  0  0  0  0  0  0  0  0  0  0  0
   61.4938   -9.5586  -68.9561 C   0  0  0  0  0  0  0  0  0  0  0  0
   60.6938   -9.8586  -68.0561 O   0  0  0  0  0  0  0  0  0  0  0  0
   62.8938   -9.5586  -68.4561 C   0  0  0  0  0  0  0  0  0  0  0  0
   63.0938   -8.3586  -67.7561 N   0  0  0  0  0  0  0  0  0  0  0  0
   64.3938   -7.9586  -67.3561 C   0  0  0  0  0  0  0  0  0  0  0  0
   64.4938   -6.5586  -66.8561 C   0  0  0  0  0  0  0  0  0  0  0  0
   64.7938   -8.7586  -66.3561 N   0  0  0  0  0  0  0  0  0  0  0  0
   64.3938   -5.4586  -67.8561 C   0  0  0  0  0  0  0  0  0  0  0  0
   64.2938   -6.1586  -69.1561 C   0  0  0  0  0  0  0  0  0  0  0  0
   63.2938   -5.7586  -70.1561 C   0  0  0  0  0  0  0  0  0  0  0  0
   63.3938   -7.0586  -69.6561 O   0  0  0  0  0  0  0  0  0  0  0  0
   63.1938   -4.3586  -70.3561 C   0  0  0  0  0  0  0  0  0  0  0  0
  2  1  2  0
  3  2  1  0
  4  2  1  0
  5  4  1  0
  6  5  1  0
  7  6  1  0
  8  6  1  0
  9  7  1  0
 10  9  1  0
 11 10  1  0
 12 10  1  0
 12 11  1  0
 13 11  1  0
M  END
>  <ID>  (1) 
conformer_0

$$$$
