
     RDKit          3D

 15 16  0  0  0  0  0  0  0  0999 V2000
   61.1938   -8.7586  -69.7561 O   0  0  0  0  0  0  0  0  0  0  0  0
   61.4938   -9.5586  -68.9561 C   0  0  0  0  0  0  0  0  0  0  0  0
   60.6938   -9.6586  -68.0561 O   0  0  0  0  0  0  0  0  0  0  0  0
   62.8938   -9.5586  -68.4561 C   0  0  0  0  0  0  0  0  0  0  0  0
   63.2938   -8.2586  -68.0561 N   0  0  0  0  0  0  0  0  0  0  0  0
   64.5938   -8.0586  -67.4561 C   0  0  0  0  0  0  0  0  0  0  0  0
   64.8938   -6.7586  -66.8561 C   0  0  0  0  0  0  0  0  0  0  0  0
   64.2938   -5.6586  -67.6561 C   0  0  0  0  0  0  0  0  0  0  0  0
   64.3938   -6.1586  -69.0561 C   0  0  0  0  0  0  0  0  0  0  0  0
   64.1938   -7.5586  -68.9561 C   0  0  0  0  0  0  0  0  0  0  0  0
   65.0938   -4.4586  -67.5561 O   0  0  0  0  0  0  0  0  0  0  0  0
   65.5938   -3.9586  -68.8561 C   0  0  0  0  0  0  0  0  0  0  0  0
   66.5938   -2.9586  -68.5561 C   0  0  0  0  0  0  0  0  0  0  0  0
   67.8938   -3.5586  -68.7561 O   0  0  0  0  0  0  0  0  0  0  0  0
   67.8938   -4.8586  -68.1561 C   0  0  0  0  0  0  0  0  0  0  0  0
  2  1  1  0
  3  2  1  0
  4  2  1  0
  5  4  1  0
  6  5  1  0
  7  6  1  0
  8  7  1  0
  9  8  1  0
 10  5  1  0
 10  6  1  0
 10  9  1  0
 11  8  1  0
 12 11  1  0
 13 12  1  0
 14 13  1  0
 15 14  1  0
M  END
>  <ID>  (1) 
conformer_0

$$$$
