
     RDKit          3D

 11 13  0  0  0  0  0  0  0  0999 V2000
   61.1938   -8.7586  -69.7561 O   0  0  0  0  0  0  0  0  0  0  0  0
   61.4938   -9.5586  -68.9561 C   0  0  0  0  0  0  0  0  0  0  0  0
   60.5938   -9.8586  -67.9561 O   0  0  0  0  0  0  0  0  0  0  0  0
   62.8938   -9.4586  -68.4561 C   0  0  0  0  0  0  0  0  0  0  0  0
   63.2938   -8.1586  -67.8561 N   0  0  0  0  0  0  0  0  0  0  0  0
   64.3938   -8.0586  -67.0561 C   0  0  0  0  0  0  0  0  0  0  0  0
   65.3938   -7.0586  -67.3561 C   0  0  0  0  0  0  0  0  0  0  0  0
   64.9938   -6.2586  -68.4561 C   0  0  0  0  0  0  0  0  0  0  0  0
   63.9938   -6.4586  -69.4561 C   0  0  0  0  0  0  0  0  0  0  0  0
   63.5938   -6.0586  -68.2561 N   0  0  0  0  0  0  0  0  0  0  0  0
   63.3938   -8.0586  -69.2561 C   0  0  0  0  0  0  0  0  0  0  0  0
  2  1  2  0
  3  2  1  0
  4  2  1  0
  5  4  1  0
  6  5  1  0
  7  6  1  0
  8  7  1  0
  9  8  1  0
 10  8  1  0
 10  9  1  0
 11  4  1  0
 11  5  1  0
 11  9  1  0
M  END
>  <ID>  (1) 
conformer_0

$$$$
