
     RDKit          3D

 13 13  0  0  0  0  0  0  0  0999 V2000
   61.2793   -8.2801  -69.9964 O   0  0  0  0  0  0  0  0  0  0  0  0
   61.7793   -9.1801  -69.2964 C   0  0  0  0  0  0  0  0  0  0  0  0
   61.0793   -9.6801  -68.1964 O   0  0  0  0  0  0  0  0  0  0  0  0
   63.1793   -8.9801  -68.9964 C   0  0  0  0  0  0  0  0  0  0  0  0
   63.6793   -8.6801  -67.7964 N   0  0  0  0  0  0  0  0  0  0  0  0
   64.6793   -7.8801  -67.1964 C   0  0  0  0  0  0  0  0  0  0  0  0
   64.9793   -6.5801  -67.5964 C   0  0  0  0  0  0  0  0  0  0  0  0
   66.1793   -5.9801  -67.9964 C   0  0  0  0  0  0  0  0  0  0  0  0
   63.7793   -5.8801  -68.0964 C   0  0  0  0  0  0  0  0  0  0  0  0
   63.9793   -8.3801  -69.8964 O   0  0  0  0  0  0  0  0  0  0  0  0
   65.9793   -4.6801  -68.6964 C   0  0  0  0  0  0  0  0  0  0  0  0
   63.7793   -5.3801  -69.4964 C   0  0  0  0  0  0  0  0  0  0  0  0
   64.9793   -4.4801  -69.6964 C   0  0  0  0  0  0  0  0  0  0  0  0
  2  1  2  0
  3  2  1  0
  4  2  1  0
  5  4  1  0
  6  5  1  0
  7  6  1  0
  8  7  1  0
  9  7  1  0
 10  4  2  0
 11  8  1  0
 12  9  1  0
 13 11  1  0
 13 12  1  0
M  END
>  <ID>  (1) 
conformer_0

$$$$
