
     RDKit          3D

 12 13  0  0  0  0  0  0  0  0999 V2000
   61.1938   -8.7586  -69.7561 O   0  0  0  0  0  0  0  0  0  0  0  0
   61.4938   -9.5586  -68.9561 C   0  0  0  0  0  0  0  0  0  0  0  0
   60.6938   -9.8586  -68.0561 O   0  0  0  0  0  0  0  0  0  0  0  0
   62.8938   -9.5586  -68.4561 C   0  0  0  0  0  0  0  0  0  0  0  0
   63.1938   -8.2586  -67.9561 N   0  0  0  0  0  0  0  0  0  0  0  0
   64.5938   -7.7586  -67.8561 C   0  0  0  0  0  0  0  0  0  0  0  0
   64.4938   -6.4586  -67.1561 C   0  0  0  0  0  0  0  0  0  0  0  0
   65.2938   -5.3586  -67.6561 C   0  0  0  0  0  0  0  0  0  0  0  0
   65.5938   -5.6586  -69.0561 C   0  0  0  0  0  0  0  0  0  0  0  0
   63.8937   -7.5586  -69.1561 C   0  0  0  0  0  0  0  0  0  0  0  0
   64.2938   -6.1586  -69.5561 C   0  0  0  0  0  0  0  0  0  0  0  0
   63.7938  -10.1586  -69.2561 O   0  0  0  0  0  0  0  0  0  0  0  0
  2  1  2  0
  3  2  1  0
  4  2  1  0
  5  4  1  0
  6  5  1  0
  7  6  1  0
  8  7  1  0
  9  8  1  0
 10  5  1  0
 10  6  1  0
 11  9  1  0
 11 10  1  0
 12  4  1  0
M  END
>  <ID>  (1) 
conformer_0

$$$$
