
     RDKit          3D

  5  4  0  0  0  0  0  0  0  0999 V2000
   60.8584   -9.3933  -68.4445 O   0  0  0  0  0  1  0  0  0  0  0  0
   61.9584   -9.0933  -69.3445 P   0  0  0  0  0  4  0  0  0  0  0  0
   62.2584   -9.4933  -70.7445 O   0  0  0  0  0  0  0  0  0  0  0  0
   63.1584   -8.6933  -68.5445 C   0  0  0  0  0  0  0  0  0  0  0  0
   62.7584   -7.9933  -67.3445 O   0  0  0  0  0  0  0  0  0  0  0  0
  2  1  2  0
  3  2  1  0
  4  2  1  0
  5  4  1  0
M  END
>  <ID>  (1) 
conformer_0

$$$$
