
     RDKit          3D

 12 13  0  0  0  0  0  0  0  0999 V2000
   60.4197   -9.5723  -67.8809 O   0  0  0  0  0  0  0  0  0  0  0  0
   61.2197   -9.8723  -68.8809 C   0  0  0  0  0  0  0  0  0  0  0  0
   62.0197   -8.8723  -69.5809 C   0  0  0  0  0  0  0  0  0  0  0  0
   61.1197   -8.0723  -70.3809 O   0  0  0  0  0  0  0  0  0  0  0  0
   63.4197   -8.9723  -69.6809 C   0  0  0  0  0  0  0  0  0  0  0  0
   64.1197   -8.9723  -68.3809 C   0  0  0  0  0  0  0  0  0  0  0  0
   63.5197   -7.8723  -67.6809 C   0  0  0  0  0  0  0  0  0  0  0  0
   63.0197   -9.1723  -67.3809 O   0  0  0  0  0  0  0  0  0  0  0  0
   64.3197   -7.2723  -66.5809 C   0  0  0  0  0  0  0  0  0  0  0  0
   65.1197   -6.0723  -66.9809 C   0  0  0  0  0  0  0  0  0  0  0  0
   64.5197   -5.6723  -68.2809 C   0  0  0  0  0  0  0  0  0  0  0  0
   63.6197   -6.6723  -68.7809 C   0  0  0  0  0  0  0  0  0  0  0  0
  2  1  1  0
  3  2  1  0
  4  3  1  0
  5  3  1  0
  6  5  1  0
  7  6  1  0
  8  6  1  0
  8  7  1  0
  9  7  1  0
 10  9  1  0
 11 10  1  0
 12  7  1  0
 12 11  1  0
M  END
>  <ID>  (1) 
conformer_0

$$$$
