
     RDKit          3D

 11 10  0  0  0  0  0  0  0  0999 V2000
   61.1938   -8.7586  -69.7561 O   0  0  0  0  0  0  0  0  0  0  0  0
   61.4938   -9.5586  -68.9561 C   0  0  0  0  0  0  0  0  0  0  0  0
   60.6938   -9.6586  -68.0561 O   0  0  0  0  0  0  0  0  0  0  0  0
   62.8938   -9.5586  -68.4561 C   0  0  0  0  0  0  0  0  0  0  0  0
   63.2938   -8.2586  -68.0561 N   0  0  0  0  0  0  0  0  0  0  0  0
   64.1938   -7.8586  -67.0561 C   0  0  0  0  0  0  0  0  0  0  0  0
   65.1938   -6.8586  -67.3561 C   0  0  0  0  0  0  0  0  0  0  0  0
   64.7938   -6.0586  -68.5561 C   0  0  0  0  0  0  0  0  0  0  0  0
   63.3938   -5.9586  -69.0561 C   0  0  0  0  0  0  0  0  0  0  0  0
   65.8938   -5.3586  -69.2561 C   0  0  0  0  0  0  0  0  0  0  0  0
   62.7938   -7.3586  -67.0561 O   0  0  0  0  0  0  0  0  0  0  0  0
  2  1  1  0
  3  2  1  0
  4  2  1  0
  5  4  1  0
  6  5  1  0
  7  6  1  0
  8  7  1  0
  9  8  1  0
 10  8  1  0
 11  6  1  0
M  END
>  <ID>  (1) 
conformer_0

$$$$
