
     RDKit          3D

 12 11  0  0  0  0  0  0  0  0999 V2000
   61.1938   -8.7586  -69.7561 O   0  0  0  0  0  0  0  0  0  0  0  0
   61.4938   -9.5586  -68.9561 C   0  0  0  0  0  0  0  0  0  0  0  0
   60.6938   -9.8586  -68.0561 O   0  0  0  0  0  0  0  0  0  0  0  0
   62.8938   -9.4586  -68.5561 C   0  0  0  0  0  0  0  0  0  0  0  0
   63.0938   -8.1586  -67.9561 N   0  0  0  0  0  0  0  0  0  0  0  0
   64.1938   -7.8586  -67.1561 C   0  0  0  0  0  0  0  0  0  0  0  0
   65.0938   -6.8586  -67.6561 C   0  0  0  0  0  0  0  0  0  0  0  0
   64.6938   -6.1586  -68.8561 C   0  0  0  0  0  0  0  0  0  0  0  0
   63.3938   -6.2586  -69.5561 C   0  0  0  0  0  0  0  0  0  0  0  0
   62.8938   -5.0586  -70.0561 C   0  0  0  0  0  0  0  0  0  0  0  0
   64.4938   -8.4586  -66.2561 O   0  0  0  0  0  0  0  0  0  0  0  0
   66.0938   -6.0586  -66.9561 C   0  0  0  0  0  0  0  0  0  0  0  0
  2  1  2  0
  3  2  1  0
  4  2  1  0
  5  4  1  0
  6  5  1  0
  7  6  1  0
  8  7  1  0
  9  8  1  0
 10  9  1  0
 11  6  2  0
 12  7  1  0
M  END
>  <ID>  (1) 
conformer_0

$$$$
