
     RDKit          3D

 15 14  0  0  0  0  0  0  0  0999 V2000
   61.1938   -8.7586  -69.7561 O   0  0  0  0  0  0  0  0  0  0  0  0
   61.4938   -9.5586  -68.9561 C   0  0  0  0  0  0  0  0  0  0  0  0
   60.6938   -9.8586  -68.0561 O   0  0  0  0  0  0  0  0  0  0  0  0
   62.8938   -9.4586  -68.5561 C   0  0  0  0  0  0  0  0  0  0  0  0
   63.0938   -8.1586  -67.9561 N   0  0  0  0  0  0  0  0  0  0  0  0
   64.1938   -7.8586  -67.1561 C   0  0  0  0  0  0  0  0  0  0  0  0
   65.0938   -6.8586  -67.6561 C   0  0  0  0  0  0  0  0  0  0  0  0
   64.6938   -6.1586  -68.8561 C   0  0  0  0  0  0  0  0  0  0  0  0
   65.4938   -5.0586  -69.2561 C   0  0  0  0  0  0  0  0  0  0  0  0
   66.5938   -4.7586  -68.3561 C   0  0  0  0  0  0  0  0  0  0  0  0
   67.5938   -3.7586  -68.5561 C   0  0  0  0  0  0  0  0  0  0  0  0
   67.7938   -2.6586  -67.5561 C   0  0  0  0  0  0  0  0  0  0  0  0
   69.1938   -2.4586  -67.1561 C   0  0  0  0  0  0  0  0  0  0  0  0
   69.6938   -1.2586  -66.4561 C   0  0  0  0  0  0  0  0  0  0  0  0
   64.3938   -8.5586  -66.2561 O   0  0  0  0  0  0  0  0  0  0  0  0
  2  1  2  0
  3  2  1  0
  4  2  1  0
  5  4  1  0
  6  5  1  0
  7  6  1  0
  8  7  2  3
  9  8  1  0
 10  9  1  0
 11 10  1  0
 12 11  1  0
 13 12  1  0
 14 13  1  0
 15  6  2  0
M  END
>  <ID>  (1) 
conformer_0

$$$$
