
     RDKit          3D

 11 11  0  0  0  0  0  0  0  0999 V2000
   61.1938   -8.7586  -69.7561 O   0  0  0  0  0  0  0  0  0  0  0  0
   61.4938   -9.5586  -68.9561 C   0  0  0  0  0  0  0  0  0  0  0  0
   60.5938   -9.8586  -67.9561 O   0  0  0  0  0  0  0  0  0  0  0  0
   62.8938   -9.7586  -68.5561 C   0  0  0  0  0  0  0  0  0  0  0  0
   63.3938   -8.5586  -67.9561 N   0  0  0  0  0  0  0  0  0  0  0  0
   64.3938   -8.2586  -67.0561 C   0  0  0  0  0  0  0  0  0  0  0  0
   64.5938   -6.9586  -66.6561 C   0  0  0  0  0  0  0  0  0  0  0  0
   64.1937   -5.9586  -67.6561 C   0  0  0  0  0  0  0  0  0  0  0  0
   64.3937   -6.5586  -68.9561 C   0  0  0  0  0  0  0  0  0  0  0  0
   63.0937   -6.3586  -68.3561 O   0  0  0  0  0  0  0  0  0  0  0  0
   64.2937   -7.5586  -69.7561 O   0  0  0  0  0  0  0  0  0  0  0  0
  2  1  2  0
  3  2  1  0
  4  2  1  0
  5  4  1  0
  6  5  2  3
  7  6  1  0
  8  7  1  0
  9  8  1  0
 10  8  1  0
 10  9  1  0
 11  9  1  0
M  END
>  <ID>  (1) 
conformer_0

$$$$
