
     RDKit          3D

  7  7  0  0  0  0  0  0  0  0999 V2000
   61.1938   -8.7586  -69.7561 O   0  0  0  0  0  0  0  0  0  0  0  0
   61.4938   -9.5586  -68.9561 C   0  0  0  0  0  0  0  0  0  0  0  0
   60.6938   -9.8586  -68.0561 O   0  0  0  0  0  0  0  0  0  0  0  0
   62.8938   -9.5586  -68.4561 C   0  0  0  0  0  0  0  0  0  0  0  0
   63.9938   -8.7586  -68.7561 C   0  0  0  0  0  0  0  0  0  0  0  0
   62.8938   -8.1586  -67.9561 N   0  0  0  0  0  0  0  0  0  0  0  0
   62.7938   -7.5586  -66.9561 O   0  0  0  0  0  0  0  0  0  0  0  0
  2  1  2  0
  3  2  1  0
  4  2  1  0
  5  4  1  0
  6  4  1  0
  6  5  1  0
  7  6  1  0
M  END
>  <ID>  (1) 
conformer_0

$$$$
