
     RDKit          3D

 12 12  0  0  0  0  0  0  0  0999 V2000
   60.4572   -9.7367  -67.4025 O   0  0  0  0  0  0  0  0  0  0  0  0
   61.0572  -10.0367  -68.6025 C   0  0  0  0  0  0  0  0  0  0  0  0
   61.7572   -9.1367  -69.5025 C   0  0  0  0  0  0  0  0  0  0  0  0
   60.9572   -8.1367  -70.1025 O   0  0  0  0  0  0  0  0  0  0  0  0
   62.5572   -8.4367  -68.6025 N   0  0  0  0  0  0  0  0  0  0  0  0
   63.8572   -8.6367  -68.1025 C   0  0  0  0  0  0  0  0  0  0  0  0
   64.6572   -7.5367  -67.5025 C   0  0  0  0  0  0  0  0  0  0  0  0
   63.8572   -6.4367  -66.9025 C   0  0  0  0  0  0  0  0  0  0  0  0
   65.7572   -6.8367  -68.1025 C   0  0  0  0  0  0  0  0  0  0  0  0
   65.8572   -5.4367  -67.6025 C   0  0  0  0  0  0  0  0  0  0  0  0
   64.3572   -5.1367  -67.4025 C   0  0  0  0  0  0  0  0  0  0  0  0
   61.7572   -7.3367  -70.9025 C   0  0  0  0  0  0  0  0  0  0  0  0
  2  1  1  0
  3  2  1  0
  4  3  1  0
  5  3  1  0
  6  5  1  0
  7  6  1  0
  8  7  1  0
  9  7  1  0
 10  9  1  0
 11  8  1  0
 11 10  1  0
 12  4  1  0
M  END
>  <ID>  (1) 
conformer_0

$$$$
