
     RDKit          3D

 13 14  0  0  0  0  0  0  0  0999 V2000
   61.1938   -8.7586  -69.7561 O   0  0  0  0  0  0  0  0  0  0  0  0
   61.4938   -9.5586  -68.9561 C   0  0  0  0  0  0  0  0  0  0  0  0
   60.6938   -9.7586  -67.8561 O   0  0  0  0  0  0  0  0  0  0  0  0
   62.8938   -9.8586  -68.6561 C   0  0  0  0  0  0  0  0  0  0  0  0
   63.4938   -8.9586  -67.8561 N   0  0  0  0  0  0  0  0  0  0  0  0
   64.5938   -8.1586  -67.7561 C   0  0  0  0  0  0  0  0  0  0  0  0
   64.9938   -7.1586  -66.8561 C   0  0  0  0  0  0  0  0  0  0  0  0
   65.5938   -5.9586  -67.4561 C   0  0  0  0  0  0  0  0  0  0  0  0
   65.0938   -5.8586  -68.7561 C   0  0  0  0  0  0  0  0  0  0  0  0
   63.6937   -6.2586  -68.9561 C   0  0  0  0  0  0  0  0  0  0  0  0
   63.2937   -7.5586  -68.3561 C   0  0  0  0  0  0  0  0  0  0  0  0
   63.6938   -9.9586  -69.8561 O   0  0  0  0  0  0  0  0  0  0  0  0
   63.9938   -8.8586  -70.5561 C   0  0  0  0  0  0  0  0  0  0  0  0
  2  1  2  0
  3  2  1  0
  4  2  1  0
  5  4  1  0
  6  5  1  0
  7  6  1  0
  8  7  1  0
  9  8  1  0
 10  9  1  0
 11  5  1  0
 11  6  1  0
 11 10  1  0
 12  4  1  0
 13 12  1  0
M  END
>  <ID>  (1) 
conformer_0

$$$$
