
     RDKit          3D

 13 12  0  0  0  0  0  0  0  0999 V2000
   60.9814   -8.8724  -69.7006 O   0  0  0  0  0  0  0  0  0  0  0  0
   61.8814   -9.2724  -69.1006 C   0  0  0  0  0  0  0  0  0  0  0  0
   63.1814   -8.8724  -69.1006 C   0  0  0  0  0  0  0  0  0  0  0  0
   63.6814   -8.1724  -67.9006 C   0  0  0  0  0  0  0  0  0  0  0  0
   61.1814   -9.6724  -67.9006 O   0  0  0  0  0  0  0  0  0  0  0  0
   62.7814   -7.5724  -67.0006 O   0  0  0  0  0  0  0  0  0  0  0  0
   64.8814   -7.3724  -68.1006 C   0  0  0  0  0  0  0  0  0  0  0  0
   64.9814   -6.2724  -67.1006 C   0  0  0  0  0  0  0  0  0  0  0  0
   65.3814   -4.9724  -67.5006 C   0  0  0  0  0  0  0  0  0  0  0  0
   65.3814   -4.9724  -69.0006 C   0  0  0  0  0  0  0  0  0  0  0  0
   64.7814   -3.8724  -69.6006 C   0  0  0  0  0  0  0  0  0  0  0  0
   63.8814   -8.4724  -70.3006 C   0  0  0  0  0  0  0  0  0  0  0  0
   65.4814   -2.5724  -69.7006 O   0  0  0  0  0  0  0  0  0  0  0  0
  2  1  2  0
  3  2  1  0
  4  3  1  0
  5  2  1  0
  6  4  1  0
  7  4  1  0
  8  7  1  0
  9  8  1  0
 10  9  1  0
 11 10  1  0
 12  3  1  0
 13 11  1  0
M  END
>  <ID>  (1) 
conformer_0

$$$$
