
     RDKit          3D

  6  6  0  0  0  0  0  0  0  0999 V2000
   60.7538   -9.4363  -67.9100 O   0  0  0  0  0  0  0  0  0  0  0  0
   61.8538   -9.2363  -68.6100 N   0  0  0  0  0  0  0  0  0  0  0  0
   63.1538   -9.1363  -68.5100 C   0  0  0  0  0  0  0  0  0  0  0  0
   64.0538   -8.0363  -68.3100 C   0  0  0  0  0  0  0  0  0  0  0  0
   64.9538   -7.7363  -67.2100 C   0  0  0  0  0  0  0  0  0  0  0  0
   62.3538   -8.9363  -69.9100 C   0  0  0  0  0  0  0  0  0  0  0  0
  2  1  1  0
  3  2  1  0
  4  3  1  0
  5  4  1  0
  6  2  1  0
  6  3  1  0
M  END
>  <ID>  (1) 
conformer_0

$$$$
