
     RDKit          3D

  9  8  0  0  0  0  0  0  0  0999 V2000
   61.2793   -8.2801  -69.9964 O   0  0  0  0  0  0  0  0  0  0  0  0
   61.7793   -9.1801  -69.2964 C   0  0  0  0  0  0  0  0  0  0  0  0
   61.0793   -9.6801  -68.1964 O   0  0  0  0  0  0  0  0  0  0  0  0
   63.1793   -8.9801  -68.9964 C   0  0  0  0  0  0  0  0  0  0  0  0
   63.6793   -8.6801  -67.7964 N   0  0  0  0  0  0  0  0  0  0  0  0
   64.7793   -7.8801  -67.2964 C   0  0  0  0  0  0  0  0  0  0  0  0
   64.3793   -6.5801  -66.6964 C   0  0  0  0  0  0  0  0  0  0  0  0
   62.9793   -6.7801  -66.5964 O   0  0  0  0  0  0  0  0  0  0  0  0
   63.9793   -9.2801  -70.1964 C   0  0  0  0  0  0  0  0  0  0  0  0
  2  1  2  0
  3  2  1  0
  4  2  1  0
  5  4  1  0
  6  5  1  0
  7  6  1  0
  8  7  1  0
  9  4  1  0
M  END
>  <ID>  (1) 
conformer_0

$$$$
