
     RDKit          3D

  7  7  0  0  0  0  0  0  0  0999 V2000
   60.4735  -11.3539  -67.7220 O   0  0  0  0  0  0  0  0  0  0  0  0
   61.0735  -10.3539  -68.3220 C   0  0  0  0  0  0  0  0  0  0  0  0
   62.4735  -10.3539  -68.1220 N   0  0  0  0  0  0  0  0  0  0  0  0
   60.8735   -9.1539  -69.1220 O   0  0  0  0  0  0  0  0  0  0  0  0
   61.9735   -8.6539  -69.8220 C   0  0  0  0  0  0  0  0  0  0  0  0
   63.1735   -8.3539  -69.1220 C   0  0  0  0  0  0  0  0  0  0  0  0
   63.1735   -9.2539  -67.9220 O   0  0  0  0  0  0  0  0  0  0  0  0
  2  1  2  0
  3  2  1  0
  4  2  1  0
  5  4  1  0
  6  5  1  0
  7  3  1  0
  7  6  1  0
M  END
>  <ID>  (1) 
conformer_0

$$$$
