
     RDKit          3D

 13 14  0  0  0  0  0  0  0  0999 V2000
   61.1938   -8.7586  -69.7561 O   0  0  0  0  0  0  0  0  0  0  0  0
   61.4938   -9.5586  -68.9561 C   0  0  0  0  0  0  0  0  0  0  0  0
   60.6938   -9.7586  -67.8561 O   0  0  0  0  0  0  0  0  0  0  0  0
   62.8938   -9.8586  -68.6561 C   0  0  0  0  0  0  0  0  0  0  0  0
   63.4938   -8.9586  -67.8561 N   0  0  0  0  0  0  0  0  0  0  0  0
   64.4938   -8.0586  -67.8561 C   0  0  0  0  0  0  0  0  0  0  0  0
   64.8938   -7.2586  -66.7561 C   0  0  0  0  0  0  0  0  0  0  0  0
   64.1937   -7.1586  -68.9561 C   0  0  0  0  0  0  0  0  0  0  0  0
   65.1938   -5.8586  -67.1561 C   0  0  0  0  0  0  0  0  0  0  0  0
   64.9938   -5.9586  -68.7561 C   0  0  0  0  0  0  0  0  0  0  0  0
   63.6938   -9.8586  -69.8561 O   0  0  0  0  0  0  0  0  0  0  0  0
   63.8938   -8.8586  -70.6561 C   0  0  0  0  0  0  0  0  0  0  0  0
   63.9937   -7.5586  -70.2561 O   0  0  0  0  0  0  0  0  0  0  0  0
  2  1  2  0
  3  2  1  0
  4  2  1  0
  5  4  1  0
  6  5  1  0
  7  6  1  0
  8  6  1  0
  9  7  1  0
 10  8  1  0
 10  9  1  0
 11  4  1  0
 12 11  1  0
 13  8  1  0
 13 12  1  0
M  END
>  <ID>  (1) 
conformer_0

$$$$
