
     RDKit          3D

 13 12  0  0  0  0  0  0  0  0999 V2000
   61.1938   -8.7586  -69.7561 O   0  0  0  0  0  0  0  0  0  0  0  0
   61.4938   -9.5586  -68.9561 C   0  0  0  0  0  0  0  0  0  0  0  0
   60.6938   -9.8586  -68.0561 O   0  0  0  0  0  0  0  0  0  0  0  0
   62.8938   -9.5586  -68.5561 C   0  0  0  0  0  0  0  0  0  0  0  0
   63.2938   -8.3586  -67.9561 N   0  0  0  0  0  0  0  0  0  0  0  0
   64.5938   -8.1586  -67.4561 C   0  0  0  0  0  0  0  0  0  0  0  0
   65.0938   -6.7586  -67.4561 C   0  0  0  0  0  0  0  0  0  0  0  0
   64.8938   -6.2586  -68.8561 C   0  0  0  0  0  0  0  0  0  0  0  0
   63.5938   -6.1586  -69.4561 C   0  0  0  0  0  0  0  0  0  0  0  0
   63.0938   -5.0586  -70.2561 C   0  0  0  0  0  0  0  0  0  0  0  0
   61.8938   -5.3586  -71.0561 C   0  0  0  0  0  0  0  0  0  0  0  0
   60.7938   -4.3586  -71.0561 C   0  0  0  0  0  0  0  0  0  0  0  0
   63.9938   -6.1586  -66.7561 C   0  0  0  0  0  0  0  0  0  0  0  0
  2  1  2  0
  3  2  1  0
  4  2  1  0
  5  4  1  0
  6  5  1  0
  7  6  1  0
  8  7  1  0
  9  8  1  0
 10  9  2  3
 11 10  1  0
 12 11  1  0
 13  7  1  0
M  END
>  <ID>  (1) 
conformer_0

$$$$
