
     RDKit          3D

 11 12  0  0  0  0  0  0  0  0999 V2000
   61.1938   -8.7586  -69.7561 O   0  0  0  0  0  0  0  0  0  0  0  0
   61.4938   -9.5586  -68.9561 C   0  0  0  0  0  0  0  0  0  0  0  0
   60.6938   -9.8586  -68.0561 O   0  0  0  0  0  0  0  0  0  0  0  0
   62.8938   -9.5586  -68.4561 C   0  0  0  0  0  0  0  0  0  0  0  0
   63.1938   -8.2586  -67.9561 N   0  0  0  0  0  0  0  0  0  0  0  0
   64.4938   -7.8586  -67.9561 C   0  0  0  0  0  0  0  0  0  0  0  0
   64.6937   -6.7586  -66.9561 C   0  0  0  0  0  0  0  0  0  0  0  0
   65.6937   -5.8586  -67.4561 C   0  0  0  0  0  0  0  0  0  0  0  0
   65.5938   -5.5586  -68.8561 C   0  0  0  0  0  0  0  0  0  0  0  0
   64.2937   -6.0586  -69.3561 C   0  0  0  0  0  0  0  0  0  0  0  0
   63.5937   -7.1586  -68.9561 C   0  0  0  0  0  0  0  0  0  0  0  0
  2  1  2  0
  3  2  1  0
  4  2  1  0
  5  4  1  0
  6  5  1  0
  7  6  1  0
  8  7  1  0
  9  8  1  0
 10  9  1  0
 11  5  1  0
 11  6  1  0
 11 10  1  0
M  END
>  <ID>  (1) 
conformer_0

$$$$
