
     RDKit          3D

  9  9  0  0  0  0  0  0  0  0999 V2000
   61.1255   -8.3592  -70.3104 O   0  0  0  0  0  0  0  0  0  0  0  0
   61.9255   -9.0592  -69.6104 C   0  0  0  0  0  0  0  0  0  0  0  0
   61.1255   -9.4592  -68.4104 O   0  0  0  0  0  0  0  0  0  0  0  0
   63.3255   -8.6592  -69.3104 C   0  0  0  0  0  0  0  0  0  0  0  0
   63.9255   -7.3592  -69.2104 C   0  0  0  0  0  0  0  0  0  0  0  0
   64.8255   -6.9592  -68.1104 C   0  0  0  0  0  0  0  0  0  0  0  0
   64.3255   -6.6592  -66.8104 C   0  0  0  0  0  0  0  0  0  0  0  0
   65.1255   -5.6592  -67.6104 C   0  0  0  0  0  0  0  0  0  0  0  0
   64.1255   -9.5592  -69.6104 O   0  0  0  0  0  0  0  0  0  0  0  0
  2  1  1  0
  3  2  1  0
  4  2  1  0
  5  4  1  0
  6  5  1  0
  7  6  1  0
  8  6  1  0
  8  7  1  0
  9  4  2  0
M  END
>  <ID>  (1) 
conformer_0

$$$$
