
     RDKit          3D

  7  6  0  0  0  0  0  0  0  0999 V2000
   60.4643   -9.9569  -67.6134 O   0  0  0  0  0  0  0  0  0  0  0  0
   61.3643   -9.2569  -68.4134 N   0  0  0  0  0  0  0  0  0  0  0  0
   62.7643   -9.2569  -68.5134 C   0  0  0  0  0  0  0  0  0  0  0  0
   63.3643  -10.1569  -67.9134 O   0  0  0  0  0  0  0  0  0  0  0  0
   63.3643   -7.9569  -68.9134 C   0  0  0  0  0  0  0  0  0  0  0  0
   64.5643   -7.5569  -68.2134 C   0  0  0  0  0  0  0  0  0  0  0  0
   64.3643   -6.8569  -66.9134 C   0  0  0  0  0  0  0  0  0  0  0  0
  2  1  1  0
  3  2  1  0
  4  3  2  0
  5  3  1  0
  6  5  1  0
  7  6  1  0
M  END
>  <ID>  (1) 
conformer_0

$$$$
