
     RDKit          3D

  8  7  0  0  0  0  0  0  0  0999 V2000
   61.1938   -8.7586  -69.7561 O   0  0  0  0  0  0  0  0  0  0  0  0
   62.2938   -9.1586  -69.5561 C   0  0  0  0  0  0  0  0  0  0  0  0
   63.0938   -8.6586  -68.4561 C   0  0  0  0  0  0  0  0  0  0  0  0
   64.2937   -7.8586  -68.4561 C   0  0  0  0  0  0  0  0  0  0  0  0
   65.0938   -7.6586  -67.2561 C   0  0  0  0  0  0  0  0  0  0  0  0
   63.2938   -9.9586  -67.7561 N   0  0  0  0  0  0  0  0  0  0  0  0
   63.0938   -9.9586  -70.2561 O   0  0  0  0  0  0  0  0  0  0  0  0
   64.4938   -8.2586  -66.0561 N   0  0  0  0  0  0  0  0  0  0  0  0
  2  1  2  0
  3  2  1  0
  4  3  1  0
  5  4  1  0
  6  3  1  0
  7  2  1  0
  8  5  1  0
M  END
>  <ID>  (1) 
conformer_0

$$$$
