
     RDKit          3D

 10 10  0  0  0  0  0  0  0  0999 V2000
   61.2793   -8.2801  -69.9964 O   0  0  0  0  0  0  0  0  0  0  0  0
   61.7793   -9.1801  -69.2964 C   0  0  0  0  0  0  0  0  0  0  0  0
   60.9793   -9.4801  -68.2964 O   0  0  0  0  0  0  0  0  0  0  0  0
   63.1793   -8.8801  -68.8964 C   0  0  0  0  0  0  0  0  0  0  0  0
   63.6793   -9.2801  -67.5964 N   0  0  0  0  0  0  0  0  0  0  0  0
   64.6793   -8.2801  -67.0964 C   0  0  0  0  0  0  0  0  0  0  0  0
   64.5793   -7.0801  -67.5964 C   0  0  0  0  0  0  0  0  0  0  0  0
   64.4793   -6.6801  -68.9964 C   0  0  0  0  0  0  0  0  0  0  0  0
   64.0793   -7.9801  -69.5964 C   0  0  0  0  0  0  0  0  0  0  0  0
   63.9793   -5.9801  -66.7964 C   0  0  0  0  0  0  0  0  0  0  0  0
  2  1  1  0
  3  2  1  0
  4  2  1  0
  5  4  1  0
  6  5  1  0
  7  6  1  0
  8  7  1  0
  9  4  1  0
  9  8  1  0
 10  7  1  0
M  END
>  <ID>  (1) 
conformer_0

$$$$
