
     RDKit          3D

 12 12  0  0  0  0  0  0  0  0999 V2000
   61.1938   -8.7586  -69.7561 O   0  0  0  0  0  0  0  0  0  0  0  0
   61.4938   -9.5586  -68.9561 C   0  0  0  0  0  0  0  0  0  0  0  0
   60.6938   -9.8586  -68.0561 O   0  0  0  0  0  0  0  0  0  0  0  0
   62.8938   -9.4586  -68.5561 C   0  0  0  0  0  0  0  0  0  0  0  0
   63.1938   -8.1586  -67.9561 N   0  0  0  0  0  0  0  0  0  0  0  0
   64.2938   -7.6586  -67.4561 C   0  0  0  0  0  0  0  0  0  0  0  0
   64.8938   -6.5586  -66.8561 C   0  0  0  0  0  0  0  0  0  0  0  0
   65.3938   -5.4586  -67.5561 C   0  0  0  0  0  0  0  0  0  0  0  0
   65.0938   -5.7586  -68.9561 C   0  0  0  0  0  0  0  0  0  0  0  0
   63.6937   -6.0586  -69.1561 C   0  0  0  0  0  0  0  0  0  0  0  0
   64.6937   -6.8586  -69.6561 O   0  0  0  0  0  0  0  0  0  0  0  0
   62.5938   -5.9586  -68.6561 O   0  0  0  0  0  0  0  0  0  0  0  0
  2  1  2  0
  3  2  1  0
  4  2  1  0
  5  4  1  0
  6  5  2  3
  7  6  1  0
  8  7  1  0
  9  8  1  0
 10  9  1  0
 11  9  1  0
 11 10  1  0
 12 10  2  0
M  END
>  <ID>  (1) 
conformer_0

$$$$
