
     RDKit          3D

  6  5  0  0  0  0  0  0  0  0999 V2000
   60.2704   -9.9347  -67.9373 O   0  0  0  0  0  0  0  0  0  0  0  0
   61.3704   -9.8347  -68.8373 C   0  0  0  0  0  0  0  0  0  0  0  0
   62.0704   -8.8347  -69.6373 C   0  0  0  0  0  0  0  0  0  0  0  0
   61.1704   -8.1347  -70.3373 O   0  0  0  0  0  0  0  0  0  0  0  0
   63.4704   -9.0347  -69.9373 C   0  0  0  0  0  0  0  0  0  0  0  0
   64.0704   -7.7347  -70.1373 O   0  0  0  0  0  0  0  0  0  0  0  0
  2  1  1  0
  3  2  1  0
  4  3  1  0
  5  3  1  0
  6  5  1  0
M  END
>  <ID>  (1) 
conformer_0

$$$$
