
     RDKit          3D

  6  5  0  0  0  0  0  0  0  0999 V2000
   62.6227   -7.1063  -66.3936 O   0  0  0  0  0  0  0  0  0  0  0  0
   63.5227   -6.5063  -67.2936 C   0  0  0  0  0  0  0  0  0  0  0  0
   64.9227   -6.6063  -66.9936 C   0  0  0  0  0  0  0  0  0  0  0  0
   65.9227   -6.0063  -67.7936 C   0  0  0  0  0  0  0  0  0  0  0  0
   66.8227   -4.9063  -67.3936 C   0  0  0  0  0  0  0  0  0  0  0  0
   67.7227   -4.5063  -68.4936 C   0  0  0  0  0  0  0  0  0  0  0  0
  2  1  1  0
  3  2  2  3
  4  3  1  0
  5  4  1  0
  6  5  1  0
M  END
>  <ID>  (1) 
conformer_0

$$$$
