
     RDKit          3D

  5  4  0  0  0  0  0  0  0  0999 V2000
   60.4197   -9.5723  -67.8809 O   0  0  0  0  0  0  0  0  0  0  0  0
   61.2197   -9.8723  -68.8809 C   0  0  0  0  0  0  0  0  0  0  0  0
   62.0197   -8.8723  -69.5809 C   0  0  0  0  0  0  0  0  0  0  0  0
   61.1197   -8.0723  -70.3809 O   0  0  0  0  0  0  0  0  0  0  0  0
   63.0197   -9.4723  -70.4809 C   0  0  0  0  0  0  0  0  0  0  0  0
  2  1  1  0
  3  2  1  0
  4  3  1  0
  5  3  1  0
M  END
>  <ID>  (1) 
conformer_0

$$$$
