
     RDKit          3D

 15 14  0  0  0  0  0  0  0  0999 V2000
   61.1938   -8.7586  -69.7561 O   0  0  0  0  0  0  0  0  0  0  0  0
   61.4938   -9.5586  -68.9561 C   0  0  0  0  0  0  0  0  0  0  0  0
   60.5938   -9.8586  -67.9561 O   0  0  0  0  0  0  0  0  0  0  0  0
   62.8938   -9.5586  -68.4561 C   0  0  0  0  0  0  0  0  0  0  0  0
   63.2938   -8.4586  -67.7561 N   0  0  0  0  0  0  0  0  0  0  0  0
   64.5938   -8.0586  -67.4561 C   0  0  0  0  0  0  0  0  0  0  0  0
   64.8938   -6.6586  -67.2561 C   0  0  0  0  0  0  0  0  0  0  0  0
   65.7938   -5.8586  -67.9561 C   0  0  0  0  0  0  0  0  0  0  0  0
   65.9938   -4.4586  -67.7561 C   0  0  0  0  0  0  0  0  0  0  0  0
   67.2938   -3.9586  -68.2561 C   0  0  0  0  0  0  0  0  0  0  0  0
   67.5938   -2.5586  -68.1561 C   0  0  0  0  0  0  0  0  0  0  0  0
   68.4938   -1.8586  -67.2561 C   0  0  0  0  0  0  0  0  0  0  0  0
   69.6938   -2.5586  -66.7561 C   0  0  0  0  0  0  0  0  0  0  0  0
   70.2938   -2.2586  -65.5561 C   0  0  0  0  0  0  0  0  0  0  0  0
   63.7938   -9.8586  -69.3561 O   0  0  0  0  0  0  0  0  0  0  0  0
  2  1  2  0
  3  2  1  0
  4  2  1  0
  5  4  1  0
  6  5  1  0
  7  6  1  0
  8  7  2  3
  9  8  1  0
 10  9  1  0
 11 10  1  0
 12 11  1  0
 13 12  1  0
 14 13  2  0
 15  4  1  0
M  END
>  <ID>  (1) 
conformer_0

$$$$
