
     RDKit          3D

 11 10  0  0  0  0  0  0  0  0999 V2000
   61.1938   -8.7586  -69.7561 O   0  0  0  0  0  0  0  0  0  0  0  0
   61.4938   -9.5586  -68.9561 C   0  0  0  0  0  0  0  0  0  0  0  0
   60.6938   -9.8586  -68.0561 O   0  0  0  0  0  0  0  0  0  0  0  0
   62.8938   -9.5586  -68.4561 C   0  0  0  0  0  0  0  0  0  0  0  0
   63.1938   -8.3586  -67.8561 N   0  0  0  0  0  0  0  0  0  0  0  0
   64.3938   -7.9586  -67.3561 C   0  0  0  0  0  0  0  0  0  0  0  0
   64.9938   -6.6586  -67.3561 C   0  0  0  0  0  0  0  0  0  0  0  0
   64.4938   -5.6586  -68.2561 C   0  0  0  0  0  0  0  0  0  0  0  0
   63.7938   -6.1586  -69.4561 C   0  0  0  0  0  0  0  0  0  0  0  0
   65.0938   -4.3586  -68.3561 C   0  0  0  0  0  0  0  0  0  0  0  0
   64.5938   -8.5586  -66.3561 O   0  0  0  0  0  0  0  0  0  0  0  0
  2  1  2  0
  3  2  1  0
  4  2  1  0
  5  4  1  0
  6  5  1  0
  7  6  1  0
  8  7  1  0
  9  8  1  0
 10  8  1  0
 11  6  2  0
M  END
>  <ID>  (1) 
conformer_0

$$$$
