
     RDKit          3D

  9  8  0  0  0  0  0  0  0  0999 V2000
   61.1938   -8.7586  -69.7561 O   0  0  0  0  0  0  0  0  0  0  0  0
   61.4938   -9.5586  -68.9561 C   0  0  0  0  0  0  0  0  0  0  0  0
   60.6938   -9.8586  -68.0561 O   0  0  0  0  0  0  0  0  0  0  0  0
   62.8938   -9.5586  -68.4561 C   0  0  0  0  0  0  0  0  0  0  0  0
   63.3938   -8.2586  -68.1561 N   0  0  0  0  0  0  0  0  0  0  0  0
   64.4938   -7.8586  -67.4561 C   0  0  0  0  0  0  0  0  0  0  0  0
   64.9938   -6.5586  -67.4561 C   0  0  0  0  0  0  0  0  0  0  0  0
   66.1937   -5.9586  -67.7561 C   0  0  0  0  0  0  0  0  0  0  0  0
   66.5938   -5.2586  -68.9561 C   0  0  0  0  0  0  0  0  0  0  0  0
  2  1  2  0
  3  2  1  0
  4  2  1  0
  5  4  1  0
  6  5  2  3
  7  6  1  0
  8  7  1  0
  9  8  1  0
M  END
>  <ID>  (1) 
conformer_0

$$$$
