
     RDKit          3D

 13 13  0  0  0  0  0  0  0  0999 V2000
   61.1938   -8.7586  -69.7561 O   0  0  0  0  0  0  0  0  0  0  0  0
   61.4938   -9.5586  -68.9561 C   0  0  0  0  0  0  0  0  0  0  0  0
   60.6938   -9.8586  -68.0561 O   0  0  0  0  0  0  0  0  0  0  0  0
   62.8938   -9.5586  -68.5561 C   0  0  0  0  0  0  0  0  0  0  0  0
   63.2938   -8.3586  -67.9561 N   0  0  0  0  0  0  0  0  0  0  0  0
   64.5938   -8.1586  -67.4561 C   0  0  0  0  0  0  0  0  0  0  0  0
   65.0938   -6.7586  -67.4561 C   0  0  0  0  0  0  0  0  0  0  0  0
   64.6938   -6.2586  -68.7561 C   0  0  0  0  0  0  0  0  0  0  0  0
   63.5938   -6.6586  -69.6561 C   0  0  0  0  0  0  0  0  0  0  0  0
   62.7938   -5.4586  -69.9561 C   0  0  0  0  0  0  0  0  0  0  0  0
   65.2938   -4.9586  -69.1561 C   0  0  0  0  0  0  0  0  0  0  0  0
   64.6938   -3.8586  -69.7561 C   0  0  0  0  0  0  0  0  0  0  0  0
   63.4938   -4.4586  -70.7561 C   0  0  0  0  0  0  0  0  0  0  0  0
  2  1  2  0
  3  2  1  0
  4  2  1  0
  5  4  1  0
  6  5  1  0
  7  6  1  0
  8  7  1  0
  9  8  1  0
 10  9  1  0
 11  8  1  0
 12 11  1  0
 13 10  1  0
 13 12  1  0
M  END
>  <ID>  (1) 
conformer_0

$$$$
