
     RDKit          3D

 12 13  0  0  0  0  0  0  0  0999 V2000
   60.9814   -8.8724  -69.7006 O   0  0  0  0  0  0  0  0  0  0  0  0
   61.7814   -9.6724  -69.2006 C   0  0  0  0  0  0  0  0  0  0  0  0
   63.0814   -9.1724  -68.7006 C   0  0  0  0  0  0  0  0  0  0  0  0
   61.0814  -10.1724  -68.0006 O   0  0  0  0  0  0  0  0  0  0  0  0
   63.7814   -8.0724  -69.4006 C   0  0  0  0  0  0  0  0  0  0  0  0
   63.7814   -9.5724  -67.5006 O   0  0  0  0  0  0  0  0  0  0  0  0
   64.3814   -7.1724  -68.4006 C   0  0  0  0  0  0  0  0  0  0  0  0
   63.5814   -7.0724  -67.2006 C   0  0  0  0  0  0  0  0  0  0  0  0
   64.9814   -5.9724  -68.9006 C   0  0  0  0  0  0  0  0  0  0  0  0
   64.7814   -4.8724  -67.9006 C   0  0  0  0  0  0  0  0  0  0  0  0
   64.8814   -7.6724  -67.1006 C   0  0  0  0  0  0  0  0  0  0  0  0
   66.0814   -5.5724  -67.8006 C   0  0  0  0  0  0  0  0  0  0  0  0
  2  1  1  0
  3  2  1  0
  4  2  1  0
  5  3  1  0
  6  3  1  0
  7  5  1  0
  8  7  1  0
  9  7  1  0
 10  9  1  0
 11  7  1  0
 11  8  1  0
 12  9  1  0
 12 10  1  0
M  END
>  <ID>  (1) 
conformer_0

$$$$
