
     RDKit          3D

 10 10  0  0  0  0  0  0  0  0999 V2000
   61.2793   -8.2801  -69.9964 O   0  0  0  0  0  0  0  0  0  0  0  0
   62.0793   -9.0801  -69.5964 C   0  0  0  0  0  0  0  0  0  0  0  0
   62.9793   -9.0801  -68.4964 C   0  0  0  0  0  0  0  0  0  0  0  0
   63.6793   -7.8801  -67.9964 C   0  0  0  0  0  0  0  0  0  0  0  0
   64.7793   -7.7801  -67.0964 C   0  0  0  0  0  0  0  0  0  0  0  0
   65.4793   -6.4801  -67.2964 C   0  0  0  0  0  0  0  0  0  0  0  0
   64.3793   -5.4801  -67.4964 C   0  0  0  0  0  0  0  0  0  0  0  0
   65.0793   -5.9801  -68.6964 O   0  0  0  0  0  0  0  0  0  0  0  0
   61.1793  -10.1801  -69.3964 O   0  0  0  0  0  0  0  0  0  0  0  0
   63.2793  -10.1801  -67.7964 O   0  0  0  0  0  0  0  0  0  0  0  0
  2  1  1  0
  3  2  1  0
  4  3  2  3
  5  4  1  0
  6  5  1  0
  7  6  1  0
  8  6  1  0
  8  7  1  0
  9  2  1  0
 10  3  1  0
M  END
>  <ID>  (1) 
conformer_0

$$$$
