
     RDKit          3D

 10  9  0  0  0  0  0  0  0  0999 V2000
   61.1938   -8.7586  -69.7561 O   0  0  0  0  0  0  0  0  0  0  0  0
   61.4938   -9.5586  -68.9561 C   0  0  0  0  0  0  0  0  0  0  0  0
   60.5938   -9.6586  -67.8561 O   0  0  0  0  0  0  0  0  0  0  0  0
   62.7938   -9.3586  -68.3561 C   0  0  0  0  0  0  0  0  0  0  0  0
   62.9938   -8.0586  -67.7561 N   0  0  0  0  0  0  0  0  0  0  0  0
   64.2938   -7.5586  -67.3561 C   0  0  0  0  0  0  0  0  0  0  0  0
   64.6938   -6.1586  -67.3561 C   0  0  0  0  0  0  0  0  0  0  0  0
   65.8938   -5.7586  -68.0561 C   0  0  0  0  0  0  0  0  0  0  0  0
   66.2938   -4.4586  -68.5561 C   0  0  0  0  0  0  0  0  0  0  0  0
   67.6938   -4.0586  -68.5561 C   0  0  0  0  0  0  0  0  0  0  0  0
  2  1  1  0
  3  2  1  0
  4  2  1  0
  5  4  1  0
  6  5  1  0
  7  6  1  0
  8  7  1  0
  9  8  1  0
 10  9  1  0
M  END
>  <ID>  (1) 
conformer_0

$$$$
