
     RDKit          3D

 14 13  0  0  0  0  0  0  0  0999 V2000
   61.1938   -8.7586  -69.7561 O   0  0  0  0  0  0  0  0  0  0  0  0
   61.4938   -9.5586  -68.9561 C   0  0  0  0  0  0  0  0  0  0  0  0
   60.6938   -9.8586  -68.0561 O   0  0  0  0  0  0  0  0  0  0  0  0
   62.8938   -9.5586  -68.4561 C   0  0  0  0  0  0  0  0  0  0  0  0
   63.1938   -8.3586  -67.8561 N   0  0  0  0  0  0  0  0  0  0  0  0
   64.3938   -7.9586  -67.3561 C   0  0  0  0  0  0  0  0  0  0  0  0
   64.9938   -6.6586  -67.3561 C   0  0  0  0  0  0  0  0  0  0  0  0
   64.2938   -5.5586  -67.6561 C   0  0  0  0  0  0  0  0  0  0  0  0
   65.0938   -4.3586  -67.9561 C   0  0  0  0  0  0  0  0  0  0  0  0
   66.2938   -4.8586  -68.6561 C   0  0  0  0  0  0  0  0  0  0  0  0
   67.5938   -4.1586  -68.4561 C   0  0  0  0  0  0  0  0  0  0  0  0
   63.9938   -9.6586  -69.4561 C   0  0  0  0  0  0  0  0  0  0  0  0
   68.4938   -4.3586  -67.4561 O   0  0  0  0  0  0  0  0  0  0  0  0
   69.0938   -3.2586  -66.8561 C   0  0  0  0  0  0  0  0  0  0  0  0
  2  1  2  0
  3  2  1  0
  4  2  1  0
  5  4  1  0
  6  5  1  0
  7  6  1  0
  8  7  2  3
  9  8  1  0
 10  9  1  0
 11 10  1  0
 12  4  1  0
 13 11  1  0
 14 13  1  0
M  END
>  <ID>  (1) 
conformer_0

$$$$
