
     RDKit          3D

 10 11  0  0  0  0  0  0  0  0999 V2000
   61.1938   -8.7586  -69.7561 O   0  0  0  0  0  0  0  0  0  0  0  0
   61.4938   -9.5586  -68.9561 C   0  0  0  0  0  0  0  0  0  0  0  0
   60.6938   -9.8586  -67.9561 O   0  0  0  0  0  0  0  0  0  0  0  0
   62.8938   -9.3586  -68.5561 C   0  0  0  0  0  0  0  0  0  0  0  0
   62.9938   -8.1586  -67.8561 N   0  0  0  0  0  0  0  0  0  0  0  0
   63.9938   -7.8586  -66.8561 C   0  0  0  0  0  0  0  0  0  0  0  0
   64.6937   -6.5586  -67.0561 C   0  0  0  0  0  0  0  0  0  0  0  0
   64.0938   -5.6586  -68.0561 C   0  0  0  0  0  0  0  0  0  0  0  0
   63.8937   -6.3586  -69.3561 C   0  0  0  0  0  0  0  0  0  0  0  0
   63.3938   -7.8586  -69.1561 C   0  0  0  0  0  0  0  0  0  0  0  0
  2  1  1  0
  3  2  1  0
  4  2  1  0
  5  4  1  0
  6  5  1  0
  7  6  1  0
  8  7  1  0
  9  8  1  0
 10  4  1  0
 10  5  1  0
 10  9  1  0
M  END
>  <ID>  (1) 
conformer_0

$$$$
