
     RDKit          3D

 15 14  0  0  0  0  0  0  0  0999 V2000
   61.2793   -8.2801  -69.9964 O   0  0  0  0  0  0  0  0  0  0  0  0
   61.7793   -9.1801  -69.2964 C   0  0  0  0  0  0  0  0  0  0  0  0
   60.9793   -9.5801  -68.2964 O   0  0  0  0  0  0  0  0  0  0  0  0
   63.1793   -8.9801  -69.0964 C   0  0  0  0  0  0  0  0  0  0  0  0
   63.7793   -7.9801  -68.1964 C   0  0  0  0  0  0  0  0  0  0  0  0
   62.7793   -7.4801  -67.1964 O   0  0  0  0  0  0  0  0  0  0  0  0
   64.2793   -6.8801  -68.9964 C   0  0  0  0  0  0  0  0  0  0  0  0
   65.3793   -6.0801  -68.4964 C   0  0  0  0  0  0  0  0  0  0  0  0
   65.5793   -4.6801  -68.8964 C   0  0  0  0  0  0  0  0  0  0  0  0
   66.6793   -3.8801  -68.3964 C   0  0  0  0  0  0  0  0  0  0  0  0
   67.6793   -4.8801  -67.8964 C   0  0  0  0  0  0  0  0  0  0  0  0
   68.7793   -4.1801  -67.1964 C   0  0  0  0  0  0  0  0  0  0  0  0
   68.6793   -2.7801  -67.2964 C   0  0  0  0  0  0  0  0  0  0  0  0
   67.8793   -1.7801  -67.9964 C   0  0  0  0  0  0  0  0  0  0  0  0
   63.8793   -9.0801  -70.1964 O   0  0  0  0  0  0  0  0  0  0  0  0
  2  1  2  0
  3  2  1  0
  4  2  1  0
  5  4  1  0
  6  5  1  0
  7  5  1  0
  8  7  1  0
  9  8  2  3
 10  9  1  0
 11 10  1  0
 12 11  1  0
 13 12  1  0
 14 13  1  0
 15  4  1  0
M  END
>  <ID>  (1) 
conformer_0

$$$$
