
     RDKit          3D

 14 13  0  0  0  0  0  0  0  0999 V2000
   61.1938   -8.7586  -69.7561 O   0  0  0  0  0  0  0  0  0  0  0  0
   61.4938   -9.5586  -68.9561 C   0  0  0  0  0  0  0  0  0  0  0  0
   60.5938   -9.6586  -67.8561 O   0  0  0  0  0  0  0  0  0  0  0  0
   62.7938   -9.3586  -68.3561 C   0  0  0  0  0  0  0  0  0  0  0  0
   62.9938   -8.0586  -67.7561 N   0  0  0  0  0  0  0  0  0  0  0  0
   64.2938   -7.5586  -67.3561 C   0  0  0  0  0  0  0  0  0  0  0  0
   64.6938   -6.1586  -67.3561 C   0  0  0  0  0  0  0  0  0  0  0  0
   65.9938   -5.8586  -67.9561 C   0  0  0  0  0  0  0  0  0  0  0  0
   66.4938   -4.5586  -67.7561 C   0  0  0  0  0  0  0  0  0  0  0  0
   67.8938   -4.4586  -67.6561 C   0  0  0  0  0  0  0  0  0  0  0  0
   68.5938   -3.2586  -67.5561 C   0  0  0  0  0  0  0  0  0  0  0  0
   68.0938   -1.9586  -67.7561 C   0  0  0  0  0  0  0  0  0  0  0  0
   69.6938   -3.2586  -66.5561 C   0  0  0  0  0  0  0  0  0  0  0  0
   69.9938   -1.9586  -65.9561 C   0  0  0  0  0  0  0  0  0  0  0  0
  2  1  1  0
  3  2  1  0
  4  2  1  0
  5  4  1  0
  6  5  1  0
  7  6  1  0
  8  7  2  3
  9  8  1  0
 10  9  2  3
 11 10  1  0
 12 11  1  0
 13 11  1  0
 14 13  1  0
M  END
>  <ID>  (1) 
conformer_0

$$$$
