
     RDKit          3D

  8  8  0  0  0  0  0  0  0  0999 V2000
   61.1938   -8.7586  -69.7561 O   0  0  0  0  0  0  0  0  0  0  0  0
   61.4938   -9.5586  -68.9561 C   0  0  0  0  0  0  0  0  0  0  0  0
   60.6938   -9.6586  -68.0561 O   0  0  0  0  0  0  0  0  0  0  0  0
   62.8938   -9.7586  -68.7561 C   0  0  0  0  0  0  0  0  0  0  0  0
   63.3938   -8.5586  -68.0561 N   0  0  0  0  0  0  0  0  0  0  0  0
   64.5938   -8.0586  -67.6561 C   0  0  0  0  0  0  0  0  0  0  0  0
   64.4938   -6.9586  -66.6561 C   0  0  0  0  0  0  0  0  0  0  0  0
   64.6937   -8.3586  -66.2561 N   0  0  0  0  0  0  0  0  0  0  0  0
  2  1  2  0
  3  2  1  0
  4  2  1  0
  5  4  1  0
  6  5  1  0
  7  6  1  0
  8  6  1  0
  8  7  1  0
M  END
>  <ID>  (1) 
conformer_0

$$$$
