
     RDKit          3D

  7  6  0  0  0  0  0  0  0  0999 V2000
   61.1938   -8.7586  -69.7561 O   0  0  0  0  0  0  0  0  0  0  0  0
   61.4938   -9.5586  -68.9561 C   0  0  0  0  0  0  0  0  0  0  0  0
   60.5938   -9.8586  -67.9561 O   0  0  0  0  0  0  0  0  0  0  0  0
   62.7938   -9.3586  -68.3561 C   0  0  0  0  0  0  0  0  0  0  0  0
   62.7938   -8.2586  -67.4561 O   0  0  0  0  0  0  0  0  0  0  0  0
   63.8937   -9.4586  -69.3561 C   0  0  0  0  0  0  0  0  0  0  0  0
   63.8937   -8.1586  -70.0561 O   0  0  0  0  0  0  0  0  0  0  0  0
  2  1  1  0
  3  2  1  0
  4  2  1  0
  5  4  1  0
  6  4  1  0
  7  6  1  0
M  END
>  <ID>  (1) 
conformer_0

$$$$
