
     RDKit          3D

 25 28  0  0  0  0  0  0  0  0999 V2000
  107.0148    3.8855  -92.6095 O   0  0  0  0  0  1  0  0  0  0  0  0
  106.0148    3.2855  -91.7094 P   0  0  0  0  0  4  0  0  0  0  0  0
  106.1148    1.9855  -91.0095 O   0  0  0  0  0  0  0  0  0  0  0  0
  105.9148    4.2855  -90.6095 O   0  0  0  0  0  0  0  0  0  0  0  0
  104.8148    3.2855  -92.6095 O   0  0  0  0  0  0  0  0  0  0  0  0
  103.5148    2.7855  -92.5095 C   0  0  0  0  0  0  0  0  0  0  0  0
  102.4148    3.7855  -92.7094 C   0  0  0  0  0  0  0  0  0  0  0  0
  101.1148    3.1855  -93.0095 C   0  0  0  0  0  0  0  0  0  0  0  0
  102.3148    4.8855  -91.7094 O   0  0  0  0  0  0  0  0  0  0  0  0
  101.1148    5.5855  -92.2094 C   0  0  0  0  0  0  0  0  0  0  0  0
  100.5148    6.7855  -91.9094 N   0  0  0  0  0  0  0  0  0  0  0  0
  100.2148    4.4855  -92.6095 C   0  0  0  0  0  0  0  0  0  0  0  0
   99.2148    6.7855  -92.1094 C   0  0  0  0  0  0  0  0  0  0  0  0
  101.1148    7.6855  -91.2094 C   0  0  0  0  0  0  0  0  0  0  0  0
  102.4148    7.5855  -90.9094 O   0  0  0  0  0  0  0  0  0  0  0  0
   98.3148    6.0855  -92.7094 O   0  0  0  0  0  0  0  0  0  0  0  0
  100.3148    8.8855  -91.0095 C   0  0  0  0  0  0  0  0  0  0  0  0
   99.0148    8.6855  -91.0095 C   0  0  0  0  0  0  0  0  0  0  0  0
   98.2148    9.8855  -90.6095 N   0  0  0  0  0  0  0  0  0  0  0  0
   98.5148    7.4855  -91.1095 N   0  0  0  0  0  0  0  0  0  0  0  0
  100.6148    5.2855  -93.7094 O   0  0  0  0  0  0  0  0  0  0  0  0
  100.6148    2.4855  -94.0095 O   0  0  0  0  0  0  0  0  0  0  0  0
   98.7148   11.0855  -91.1095 C   0  0  0  0  0  0  0  0  0  0  0  0
   98.9148   12.2855  -90.6095 C   0  0  0  0  0  0  0  0  0  0  0  0
  100.0148   11.2855  -90.7094 O   0  0  0  0  0  0  0  0  0  0  0  0
  2  1  2  0
  3  2  1  0
  4  2  1  0
  5  2  1  0
  6  5  1  0
  7  6  1  0
  8  7  1  0
  9  7  1  0
 10  9  1  0
 11 10  1  0
 12  8  1  0
 12 10  1  0
 13 11  1  0
 14 11  1  0
 15 14  2  0
 16 13  2  0
 17 14  1  0
 18 17  1  0
 19 18  1  0
 20 13  1  0
 20 18  2  0
 21 10  1  0
 21 12  1  0
 22  8  1  0
 23 19  1  0
 24 23  1  0
 25 23  1  0
 25 24  1  0
M  END
>  <ID>  (1) 
conformer_0

$$$$
