
     RDKit          3D

 22 24  0  0  0  0  0  0  0  0999 V2000
  103.6991    2.1393  -93.0077 C   0  0  0  0  0  0  0  0  0  0  0  0
  102.3991    1.7393  -93.6077 C   0  0  0  0  0  0  0  0  0  0  0  0
  101.2991    2.6393  -93.2077 C   0  0  0  0  0  0  0  0  0  0  0  0
  101.8991    3.9393  -93.1077 C   0  0  0  0  0  0  0  0  0  0  0  0
  101.1991    4.9393  -92.3077 N   0  0  0  0  0  0  0  0  0  0  0  0
  100.0991    4.3393  -91.6077 C   0  0  0  0  0  0  0  0  0  0  0  0
  100.9991    6.3393  -92.5077 C   0  0  0  0  0  0  0  0  0  0  0  0
   99.6991    6.8393  -92.0077 C   0  0  0  0  0  0  0  0  0  0  0  0
   99.0991    5.6393  -91.4077 C   0  0  0  0  0  0  0  0  0  0  0  0
   99.5991    8.0393  -91.3077 C   0  0  0  0  0  0  0  0  0  0  0  0
   98.4991    8.2393  -90.7077 N   0  0  0  0  0  0  0  0  0  0  0  0
   98.5991    5.9393  -90.1077 N   0  0  0  0  0  0  0  0  0  0  0  0
   97.7991    7.1393  -90.2077 C   0  0  0  0  0  0  0  0  0  0  0  0
  103.3991    3.5393  -92.6077 C   0  0  0  0  0  0  0  0  0  0  0  0
   98.1991    5.0393  -89.1077 C   0  0  0  0  0  0  0  0  0  0  0  0
   98.3991    3.7393  -89.3076 O   0  0  0  0  0  0  0  0  0  0  0  0
  100.6991    8.9393  -91.3077 N   0  0  0  0  0  0  0  0  0  0  0  0
   97.5991    5.7393  -88.0077 C   0  0  0  0  0  0  0  0  0  0  0  0
  104.2991    1.4393  -92.1077 O   0  0  0  0  0  0  0  0  0  0  0  0
  102.0991    8.4393  -91.4077 C   0  0  0  0  0  0  0  0  0  0  0  0
  103.1991    9.2393  -91.8077 C   0  0  0  0  0  0  0  0  0  0  0  0
  104.4991    9.3393  -91.4077 O   0  0  0  0  0  0  0  0  0  0  0  0
  2  1  1  0
  3  2  1  0
  4  3  1  0
  5  4  1  0
  6  5  1  0
  7  5  1  0
  8  7  2  0
  9  6  2  0
  9  8  1  0
 10  8  1  0
 11 10  2  0
 12  9  1  0
 13 11  1  0
 13 12  1  0
 14  1  1  0
 14  4  1  0
 15 12  1  0
 16 15  2  0
 17 10  1  0
 18 15  1  0
 19  1  1  0
 20 17  2  3
 21 20  1  0
 22 21  1  0
M  END
>  <ID>  (1) 
conformer_0

$$$$
