
     RDKit          3D

 14 14  0  0  0  0  0  0  0  0999 V2000
  105.7481    2.9247  -93.0723 O   0  0  0  0  0  1  0  0  0  0  0  0
  106.2481    3.0247  -91.6723 P   0  0  0  0  0  4  0  0  0  0  0  0
  106.0481    1.9247  -90.6723 O   0  0  0  0  0  0  0  0  0  0  0  0
  107.6481    3.5247  -91.7723 O   0  0  0  0  0  0  0  0  0  0  0  0
  105.2481    4.0247  -91.1723 O   0  0  0  0  0  0  0  0  0  0  0  0
  103.9481    4.2247  -91.7723 C   0  0  0  0  0  0  0  0  0  0  0  0
  103.2481    3.2247  -92.5723 C   0  0  0  0  0  0  0  0  0  0  0  0
  103.5481    1.8247  -92.3723 O   0  0  0  0  0  0  0  0  0  0  0  0
  102.5481    1.0247  -92.8723 C   0  0  0  0  0  0  0  0  0  0  0  0
  101.9481    1.8247  -93.9723 C   0  0  0  0  0  0  0  0  0  0  0  0
  102.0481    3.2247  -93.4723 C   0  0  0  0  0  0  0  0  0  0  0  0
  101.2481    4.1247  -94.0723 O   0  0  0  0  0  0  0  0  0  0  0  0
  100.7481    1.5247  -94.4723 O   0  0  0  0  0  0  0  0  0  0  0  0
  102.0481   -0.1753  -92.4723 O   0  0  0  0  0  0  0  0  0  0  0  0
  2  1  2  0
  3  2  1  0
  4  2  1  0
  5  2  1  0
  6  5  1  0
  7  6  1  0
  8  7  1  0
  9  8  1  0
 10  9  1  0
 11  7  2  0
 11 10  1  0
 12 11  1  0
 13 10  1  0
 14  9  2  0
M  END
>  <ID>  (1) 
conformer_0

$$$$
