
     RDKit          3D

 26 29  0  0  0  0  0  0  0  0999 V2000
  103.6991    2.1393  -93.0077 C   0  0  0  0  0  0  0  0  0  0  0  0
  102.3991    1.7393  -93.6077 C   0  0  0  0  0  0  0  0  0  0  0  0
  101.2991    2.6393  -93.2077 C   0  0  0  0  0  0  0  0  0  0  0  0
  101.8991    3.9393  -93.1077 C   0  0  0  0  0  0  0  0  0  0  0  0
  101.1991    4.9393  -92.3077 N   0  0  0  0  0  0  0  0  0  0  0  0
  100.0991    4.3393  -91.6077 C   0  0  0  0  0  0  0  0  0  0  0  0
  100.9991    6.3393  -92.5077 C   0  0  0  0  0  0  0  0  0  0  0  0
   99.6991    6.8393  -92.0077 C   0  0  0  0  0  0  0  0  0  0  0  0
   98.4991    6.2393  -92.1077 C   0  0  0  0  0  0  0  0  0  0  0  0
   99.7991    8.0393  -91.2076 C   0  0  0  0  0  0  0  0  0  0  0  0
   98.4991    8.4393  -91.0077 N   0  0  0  0  0  0  0  0  0  0  0  0
  100.8991    8.7393  -91.1077 N   0  0  0  0  0  0  0  0  0  0  0  0
   99.1991    5.6393  -91.2076 C   0  0  0  0  0  0  0  0  0  0  0  0
  103.4991    2.5393  -91.6077 C   0  0  0  0  0  0  0  0  0  0  0  0
  104.7991    3.0393  -91.2077 O   0  0  0  0  0  0  0  0  0  0  0  0
  105.9991    2.8393  -91.9077 P   0  0  0  0  0  4  0  0  0  0  0  0
  106.0991    2.6393  -93.3077 O   0  0  0  0  0  1  0  0  0  0  0  0
  106.9991    3.3393  -90.9077 O   0  0  0  0  0  0  0  0  0  0  0  0
   98.4991    9.8393  -90.7076 C   0  0  0  0  0  0  0  0  0  0  0  0
   99.1991   10.5393  -91.6077 C   0  0  0  0  0  0  0  0  0  0  0  0
   99.3991   11.7393  -91.5077 N   0  0  0  0  0  0  0  0  0  0  0  0
   98.3991   12.2393  -90.7076 N   0  0  0  0  0  0  0  0  0  0  0  0
   97.1991   11.8393  -90.8076 C   0  0  0  0  0  0  0  0  0  0  0  0
   97.1991   10.4393  -90.6077 C   0  0  0  0  0  0  0  0  0  0  0  0
  105.7991    1.4393  -91.4077 O   0  0  0  0  0  0  0  0  0  0  0  0
   98.5991   11.2393  -92.5077 C   0  0  0  0  0  0  0  0  0  0  0  0
  2  1  1  0
  3  2  1  0
  4  3  1  0
  5  4  1  0
  6  5  1  0
  7  5  1  0
  8  7  1  0
  9  8  1  0
 10  8  1  0
 11 10  1  0
 12 10  2  0
 13  6  1  0
 13  8  1  0
 13  9  1  0
 14  1  1  0
 15 14  1  0
 16 15  1  0
 17 16  2  0
 18 16  1  0
 19 11  1  0
 20 19  1  0
 21 20  1  0
 22 21  1  0
 23 22  2  0
 24 19  2  0
 24 23  1  0
 25 16  1  0
 26 20  1  0
 26 21  1  0
M  END
>  <ID>  (1) 
conformer_0

$$$$
