
     RDKit          3D

 21 23  0  0  0  0  0  0  0  0999 V2000
  106.9893    3.3941  -92.6371 O   0  0  0  0  0  1  0  0  0  0  0  0
  105.9893    2.8941  -91.7371 P   0  0  0  0  0  4  0  0  0  0  0  0
  106.1893    1.9941  -90.6371 O   0  0  0  0  0  0  0  0  0  0  0  0
  104.6893    3.5941  -91.5371 O   0  0  0  0  0  0  0  0  0  0  0  0
  103.7893    4.2941  -92.3371 C   0  0  0  0  0  0  0  0  0  0  0  0
  102.4893    3.8941  -92.8371 C   0  0  0  0  0  0  0  0  0  0  0  0
  101.2893    4.6941  -92.5371 C   0  0  0  0  0  0  0  0  0  0  0  0
  102.2893    2.5941  -92.1371 O   0  0  0  0  0  0  0  0  0  0  0  0
  100.1893    3.6941  -92.3371 C   0  0  0  0  0  0  0  0  0  0  0  0
  102.0893    2.6941  -93.5371 C   0  0  0  0  0  0  0  0  0  0  0  0
  100.3893    4.4941  -93.5371 O   0  0  0  0  0  0  0  0  0  0  0  0
   99.1893    4.2941  -91.4371 C   0  0  0  0  0  0  0  0  0  0  0  0
   99.3893    5.5941  -90.9371 N   0  0  0  0  0  0  0  0  0  0  0  0
   99.3893    5.6941  -89.5371 C   0  0  0  0  0  0  0  0  0  0  0  0
   99.0893    4.5941  -88.8371 N   0  0  0  0  0  0  0  0  0  0  0  0
   98.9893    6.9941  -89.1371 N   0  0  0  0  0  0  0  0  0  0  0  0
   99.4893    3.9941  -87.8371 C   0  0  0  0  0  0  0  0  0  0  0  0
  100.0893    2.8941  -87.5371 N   0  0  0  0  0  0  0  0  0  0  0  0
  105.5893    1.6941  -92.5371 O   0  0  0  0  0  0  0  0  0  0  0  0
  100.8893    3.9941  -87.3371 C   0  0  0  0  0  0  0  0  0  0  0  0
   97.8893    3.7941  -91.0371 C   0  0  0  0  0  0  0  0  0  0  0  0
  2  1  2  0
  3  2  1  0
  4  2  1  0
  5  4  1  0
  6  5  1  0
  7  6  1  0
  8  6  1  0
  9  7  1  0
 10  6  1  0
 10  8  1  0
 11  7  1  0
 11  9  1  0
 12  9  1  0
 13 12  1  0
 14 13  1  0
 15 14  1  0
 16 14  2  0
 17 15  1  0
 18 17  1  0
 19  2  1  0
 20 17  1  0
 20 18  1  0
 21 12  1  0
M  END
>  <ID>  (1) 
conformer_0

$$$$
