
     RDKit          3D

 25 27  0  0  0  0  0  0  0  0999 V2000
  106.9893    3.3941  -92.6371 O   0  0  0  0  0  0  0  0  0  0  0  0
  105.9893    2.7941  -91.7371 P   0  0  0  0  0  4  0  0  0  0  0  0
  105.7893    1.7941  -90.7371 O   0  0  0  0  0  1  0  0  0  0  0  0
  104.7893    3.5941  -91.3371 O   0  0  0  0  0  0  0  0  0  0  0  0
  103.4893    2.9941  -91.4371 C   0  0  0  0  0  0  0  0  0  0  0  0
  102.3893    3.6941  -91.9371 C   0  0  0  0  0  0  0  0  0  0  0  0
  101.5893    3.0941  -93.0371 C   0  0  0  0  0  0  0  0  0  0  0  0
  101.4893    4.2941  -90.9371 O   0  0  0  0  0  0  0  0  0  0  0  0
  100.1893    4.4941  -91.4371 C   0  0  0  0  0  0  0  0  0  0  0  0
   99.8893    5.6941  -92.0371 N   0  0  0  0  0  0  0  0  0  0  0  0
  100.7893    5.3941  -92.8371 C   0  0  0  0  0  0  0  0  0  0  0  0
  101.1893    4.3941  -93.6371 N   0  0  0  0  0  4  0  0  0  0  0  0
   98.5893    6.2941  -91.9371 C   0  0  0  0  0  0  0  0  0  0  0  0
   98.2893    6.9941  -90.8371 N   0  0  0  0  0  0  0  0  0  0  0  0
   98.2893    8.1941  -90.3371 C   0  0  0  0  0  0  0  0  0  0  0  0
   97.2893    8.9941  -90.0371 N   0  0  0  0  0  0  0  0  0  0  0  0
   99.2893    9.0941  -90.8371 C   0  0  0  0  0  0  0  0  0  0  0  0
   99.1893   10.3941  -91.1371 N   0  0  0  0  0  0  0  0  0  0  0  0
  100.5893    8.4941  -91.0371 C   0  0  0  0  0  0  0  0  0  0  0  0
  101.4893    9.5941  -91.0371 N   0  0  0  0  0  0  0  0  0  0  0  0
  102.7893    9.0941  -91.4371 C   0  0  0  0  0  0  0  0  0  0  0  0
  100.6893   10.5941  -91.0371 N   0  0  0  0  0  0  0  0  0  0  0  0
  101.0893    4.6941  -94.9371 C   0  0  0  0  0  0  0  0  0  0  0  0
  105.6893    2.5941  -93.1371 O   0  0  0  0  0  0  0  0  0  0  0  0
  100.4893    5.1941  -93.9371 N   0  0  0  0  0  0  0  0  0  0  0  0
  2  1  1  0
  3  2  2  0
  4  2  1  0
  5  4  1  0
  6  5  1  0
  7  6  1  0
  8  6  1  0
  9  8  1  0
 10  9  1  0
 11 10  1  0
 12  7  1  0
 12 11  1  0
 13 10  1  0
 14 13  1  0
 15 14  1  0
 16 15  2  0
 17 15  1  0
 18 17  1  0
 19 17  2  0
 20 19  1  0
 21 20  1  0
 22 18  2  0
 22 20  1  0
 23 12  1  0
 24  2  1  0
 25 11  1  0
 25 23  1  0
M  END
>  <ID>  (1) 
conformer_0

$$$$
