
     RDKit          3D

  7  8  0  0  0  0  0  0  0  0999 V2000
   98.8916    4.0686  -91.4231 C   0  0  0  0  0  0  0  0  0  0  0  0
  100.2916    4.5686  -91.5231 C   0  0  0  0  0  0  0  0  0  0  0  0
  100.3916    5.6686  -92.3231 N   0  0  0  0  0  0  0  0  0  0  0  0
   99.1916    6.4686  -92.2231 C   0  0  0  0  0  0  0  0  0  0  0  0
   98.2916    6.4686  -91.0231 C   0  0  0  0  0  0  0  0  0  0  0  0
   99.5916    4.7686  -90.2231 C   0  0  0  0  0  0  0  0  0  0  0  0
   98.8916    5.9686  -89.9231 N   0  0  0  0  0  0  0  0  0  0  0  0
  2  1  1  0
  3  2  1  0
  4  3  1  0
  5  4  1  0
  6  1  1  0
  6  2  1  0
  7  5  1  0
  7  6  1  0
M  END
>  <ID>  (1) 
conformer_0

$$$$
