
     RDKit          3D

 16 17  0  0  0  0  0  0  0  0999 V2000
  102.2369    2.7016  -93.2077 C   0  0  0  0  0  0  0  0  0  0  0  0
  100.8369    3.1016  -93.3077 C   0  0  0  0  0  0  0  0  0  0  0  0
  100.4369    4.2016  -92.4077 C   0  0  0  0  0  0  0  0  0  0  0  0
   99.1369    4.1016  -91.7077 C   0  0  0  0  0  0  0  0  0  0  0  0
  101.6369    4.6016  -91.6077 N   0  0  0  0  0  0  0  0  0  0  0  0
  102.8369    3.9016  -92.1077 C   0  0  0  0  0  0  0  0  0  0  0  0
  101.2369    4.7016  -90.3077 C   0  0  0  0  0  0  0  0  0  0  0  0
  100.0369    4.8016  -89.6077 C   0  0  0  0  0  0  0  0  0  0  0  0
   98.8369    4.9016  -90.5077 C   0  0  0  0  0  0  0  0  0  0  0  0
  102.5369    1.6016  -92.3077 O   0  0  0  0  0  0  0  0  0  0  0  0
  103.9369    3.4016  -91.6077 C   0  0  0  0  0  0  0  0  0  0  0  0
  105.1369    3.9016  -91.1077 O   0  0  0  0  0  0  0  0  0  0  0  0
  106.5369    3.6016  -91.5077 P   0  0  0  0  0  4  0  0  0  0  0  0
  106.5369    2.8016  -92.7077 O   0  0  0  0  0  1  0  0  0  0  0  0
  107.5369    3.5016  -90.4077 O   0  0  0  0  0  0  0  0  0  0  0  0
  107.0369    4.9016  -92.0077 O   0  0  0  0  0  0  0  0  0  0  0  0
  2  1  1  0
  3  2  1  0
  4  3  1  0
  5  3  1  0
  6  1  1  0
  6  5  1  0
  7  5  1  0
  8  7  1  0
  9  4  1  0
  9  8  1  0
 10  1  1  0
 11  6  1  0
 12 11  1  0
 13 12  1  0
 14 13  2  0
 15 13  1  0
 16 13  1  0
M  END
>  <ID>  (1) 
conformer_0

$$$$
