
     RDKit          3D

 16 17  0  0  0  0  0  0  0  0999 V2000
  102.2611    3.4334  -92.8967 C   0  0  0  0  0  0  0  0  0  0  0  0
  103.0611    2.2334  -92.7967 C   0  0  0  0  0  0  0  0  0  0  0  0
  100.8611    3.2334  -92.9967 C   0  0  0  0  0  0  0  0  0  0  0  0
  102.2611    1.1334  -92.5967 O   0  0  0  0  0  0  0  0  0  0  0  0
   99.9611    4.0334  -92.1967 C   0  0  0  0  0  0  0  0  0  0  0  0
  100.7611    4.6334  -91.0967 C   0  0  0  0  0  0  0  0  0  0  0  0
  102.7611    4.5334  -92.1967 O   0  0  0  0  0  0  0  0  0  0  0  0
  101.9611    5.5334  -91.5967 C   0  0  0  0  0  0  0  0  0  0  0  0
  100.3611    4.6334  -93.3967 O   0  0  0  0  0  0  0  0  0  0  0  0
  102.1611    6.5334  -90.5967 C   0  0  0  0  0  0  0  0  0  0  0  0
  103.0611    6.1334  -89.4967 O   0  0  0  0  0  0  0  0  0  0  0  0
  100.9611    4.5334  -89.6967 O   0  0  0  0  0  0  0  0  0  0  0  0
  104.2611    2.3334  -92.0967 C   0  0  0  0  0  0  0  0  0  0  0  0
  104.7611    1.1334  -91.4967 O   0  0  0  0  0  0  0  0  0  0  0  0
  105.3611    3.3334  -92.1967 C   0  0  0  0  0  0  0  0  0  0  0  0
  106.4611    2.7334  -92.8967 O   0  0  0  0  0  0  0  0  0  0  0  0
  2  1  1  0
  3  1  1  0
  4  2  1  0
  5  3  1  0
  6  5  1  0
  7  1  1  0
  8  6  1  0
  8  7  1  0
  9  3  1  0
  9  5  1  0
 10  8  1  0
 11 10  1  0
 12  6  1  0
 13  2  1  0
 14 13  1  0
 15 13  1  0
 16 15  1  0
M  END
>  <ID>  (1) 
conformer_0

$$$$
