
     RDKit          3D

 19 20  0  0  0  0  0  0  0  0999 V2000
  103.6991    2.1393  -93.0077 C   0  0  0  0  0  0  0  0  0  0  0  0
  102.3991    1.7393  -93.6077 C   0  0  0  0  0  0  0  0  0  0  0  0
  101.2991    2.6393  -93.2077 C   0  0  0  0  0  0  0  0  0  0  0  0
  101.8991    3.9393  -93.1077 C   0  0  0  0  0  0  0  0  0  0  0  0
  101.1991    4.9393  -92.3077 N   0  0  0  0  0  0  0  0  0  0  0  0
  100.0991    4.3393  -91.6077 C   0  0  0  0  0  0  0  0  0  0  0  0
  100.9991    6.3393  -92.5077 C   0  0  0  0  0  0  0  0  0  0  0  0
   99.6991    6.8393  -92.0077 C   0  0  0  0  0  0  0  0  0  0  0  0
   99.0991    5.6393  -91.4077 C   0  0  0  0  0  0  0  0  0  0  0  0
   99.3991    7.9393  -91.3077 C   0  0  0  0  0  0  0  0  0  0  0  0
   98.7991    7.7393  -90.1077 N   0  0  0  0  0  0  0  0  0  0  0  0
   98.4991    5.5393  -90.3077 N   0  0  0  0  0  0  0  0  0  0  0  0
   97.8991    6.8393  -89.9077 C   0  0  0  0  0  0  0  0  0  0  0  0
  104.4991    1.0393  -92.5077 O   0  0  0  0  0  0  0  0  0  0  0  0
   98.6991    4.4393  -89.4077 C   0  0  0  0  0  0  0  0  0  0  0  0
  105.5991    1.8393  -92.0077 P   0  0  0  0  0  4  0  0  0  0  0  0
  105.9991    2.9393  -92.9077 O   0  0  0  0  0  1  0  0  0  0  0  0
  106.0991    1.8393  -90.6077 O   0  0  0  0  0  0  0  0  0  0  0  0
  104.8991    2.6393  -91.0077 O   0  0  0  0  0  0  0  0  0  0  0  0
  2  1  1  0
  3  2  1  0
  4  3  1  0
  5  4  1  0
  6  5  1  0
  7  5  1  0
  8  7  1  0
  9  6  2  0
  9  8  1  0
 10  8  2  0
 11 10  1  0
 12  9  1  0
 13 11  2  0
 13 12  1  0
 14  1  1  0
 15 12  1  0
 16 14  1  0
 17 16  2  0
 18 16  1  0
 19 16  1  0
M  END
>  <ID>  (1) 
conformer_0

$$$$
