
     RDKit          3D

 12 14  0  0  0  0  0  0  0  0999 V2000
   99.3255    4.1644  -91.9162 C   0  0  0  0  0  0  0  0  0  0  0  0
  100.7255    4.2644  -92.4162 C   0  0  0  0  0  0  0  0  0  0  0  0
   98.8255    5.5644  -91.8162 C   0  0  0  0  0  0  0  0  0  0  0  0
   99.9255    6.4644  -91.6162 N   0  0  0  0  0  0  0  0  0  0  0  0
  100.8255    5.8644  -92.6162 C   0  0  0  0  0  0  0  0  0  0  0  0
  100.1255    7.6644  -91.1162 C   0  0  0  0  0  0  0  0  0  0  0  0
  101.3255    8.4644  -91.3162 C   0  0  0  0  0  0  0  0  0  0  0  0
   99.0255    8.3644  -90.4162 C   0  0  0  0  0  0  0  0  0  0  0  0
   99.1255    9.7644  -90.8162 C   0  0  0  0  0  0  0  0  0  0  0  0
  100.0255   10.4644  -91.3162 C   0  0  0  0  0  0  0  0  0  0  0  0
  101.3255    9.8644  -91.2162 C   0  0  0  0  0  0  0  0  0  0  0  0
  100.5255    4.0644  -91.0162 O   0  0  0  0  0  0  0  0  0  0  0  0
  2  1  1  0
  3  1  1  0
  4  3  1  0
  5  2  1  0
  5  4  1  0
  6  4  1  0
  7  6  2  0
  8  6  1  0
  9  8  2  0
 10  9  1  0
 11  7  1  0
 11 10  2  0
 12  1  1  0
 12  2  1  0
M  END
>  <ID>  (1) 
conformer_0

$$$$
