
     RDKit          3D

 25 28  0  0  0  0  0  0  0  0999 V2000
   98.7447    3.8805  -91.4301 C   0  0  0  0  0  0  0  0  0  0  0  0
  100.0447    3.8805  -92.1301 C   0  0  0  0  0  0  0  0  0  0  0  0
  100.6447    5.1805  -92.2301 N   0  0  0  0  0  0  0  0  0  0  0  0
   99.6447    6.1805  -92.1301 C   0  0  0  0  0  0  0  0  0  0  0  0
   98.3447    5.2805  -91.7301 C   0  0  0  0  0  0  0  0  0  0  0  0
  101.6447    5.1805  -93.2301 C   0  0  0  0  0  0  0  0  0  0  0  0
  102.5447    4.0805  -92.9301 C   0  0  0  0  0  0  0  0  0  0  0  0
  102.0447    2.7805  -93.0301 C   0  0  0  0  0  0  0  0  0  0  0  0
  103.7447    4.3805  -92.1301 C   0  0  0  0  0  0  0  0  0  0  0  0
  104.0447    5.5805  -91.8301 N   0  0  0  0  0  0  0  0  0  0  0  0
  104.4446    3.2805  -92.2301 N   0  0  0  0  0  0  0  0  0  0  0  0
   99.6447    7.3805  -91.3301 C   0  0  0  0  0  0  0  0  0  0  0  0
  100.7447    8.0805  -91.1301 N   0  0  0  0  0  0  0  0  0  0  0  0
  101.2447    9.2805  -91.3301 C   0  0  0  0  0  0  0  0  0  0  0  0
  102.8447    1.7805  -93.2301 N   0  0  0  0  0  0  0  0  0  0  0  0
  104.2447    2.0805  -92.8301 C   0  0  0  0  0  0  0  0  0  0  0  0
  102.5447    9.5805  -91.3301 O   0  0  0  0  0  0  0  0  0  0  0  0
  100.6447   10.4805  -90.9301 N   0  0  0  0  0  0  0  0  0  0  0  0
   99.3447   10.0805  -91.0301 C   0  0  0  0  0  0  0  0  0  0  0  0
  100.5447    2.8805  -93.0301 C   0  0  0  0  0  0  0  0  0  0  0  0
   98.1447   10.8805  -90.9301 C   0  0  0  0  0  0  0  0  0  0  0  0
  102.5447    0.4805  -93.6301 C   0  0  0  0  0  0  0  0  0  0  0  0
  105.0447    1.4805  -93.6301 O   0  0  0  0  0  0  0  0  0  0  0  0
   99.6447    7.9805  -90.2301 C   0  0  0  0  0  0  0  0  0  0  0  0
   98.4446    9.5805  -91.2301 N   0  0  0  0  0  0  0  0  0  0  0  0
  2  1  1  0
  3  2  1  0
  4  3  1  0
  5  1  1  0
  5  4  1  0
  6  3  1  0
  7  6  1  0
  8  7  1  0
  9  7  1  0
 10  9  2  0
 11  9  1  0
 12  4  1  0
 13 12  1  0
 14 13  1  0
 15  8  1  0
 16 11  1  0
 16 15  1  0
 17 14  2  0
 18 14  1  0
 19 18  1  0
 20  2  1  0
 20  8  1  0
 22 15  1  0
 23 16  2  0
 24 12  1  0
 24 13  1  0
 25 19  1  0
 25 21  1  0
M  END
>  <ID>  (1) 
conformer_0

$$$$
