
     RDKit          3D

 26 31  0  0  0  0  0  0  0  0999 V2000
   98.7447    3.8805  -91.4301 C   0  0  0  0  0  0  0  0  0  0  0  0
  100.0447    3.8805  -92.1301 C   0  0  0  0  0  0  0  0  0  0  0  0
  100.6447    5.1805  -92.2301 N   0  0  0  0  0  0  0  0  0  0  0  0
   99.6447    6.1805  -92.1301 C   0  0  0  0  0  0  0  0  0  0  0  0
   98.3447    5.2805  -91.7301 C   0  0  0  0  0  0  0  0  0  0  0  0
  101.6447    5.1805  -93.2301 C   0  0  0  0  0  0  0  0  0  0  0  0
  102.5447    4.0805  -92.9301 C   0  0  0  0  0  0  0  0  0  0  0  0
  102.0447    2.7805  -93.0301 C   0  0  0  0  0  0  0  0  0  0  0  0
  103.7447    4.3805  -92.1301 C   0  0  0  0  0  0  0  0  0  0  0  0
  104.0447    5.5805  -91.8301 N   0  0  0  0  0  0  0  0  0  0  0  0
  103.9446    3.1805  -91.4301 N   0  0  0  0  0  0  0  0  0  0  0  0
  103.9446    1.8805  -91.9301 C   0  0  0  0  0  0  0  0  0  0  0  0
  102.8447    1.6805  -92.8301 N   0  0  0  0  0  0  0  0  0  0  0  0
  100.6447    2.7805  -93.0301 C   0  0  0  0  0  0  0  0  0  0  0  0
   99.7447    7.3805  -91.3301 C   0  0  0  0  0  0  0  0  0  0  0  0
  100.8447    8.1805  -91.0301 C   0  0  0  0  0  0  0  0  0  0  0  0
   98.4446    7.9805  -91.0301 C   0  0  0  0  0  0  0  0  0  0  0  0
   98.6446    9.3805  -90.7301 C   0  0  0  0  0  0  0  0  0  0  0  0
  100.8447    9.4805  -91.3301 C   0  0  0  0  0  0  0  0  0  0  0  0
   99.6446   10.1805  -90.9301 C   0  0  0  0  0  0  0  0  0  0  0  0
   99.4446   11.4805  -91.4301 N   0  0  0  0  0  0  0  0  0  0  0  0
  104.1447    1.9805  -93.4301 C   0  0  0  0  0  0  0  0  0  0  0  0
   98.4446   12.1805  -90.9301 C   0  0  0  0  0  0  0  0  0  0  0  0
  105.4447    2.3805  -93.5301 O   0  0  0  0  0  0  0  0  0  0  0  0
   97.1446   11.5805  -90.6301 C   0  0  0  0  0  0  0  0  0  0  0  0
   97.4446   10.1805  -90.4301 O   0  0  0  0  0  0  0  0  0  0  0  0
  2  1  1  0
  3  2  1  0
  4  3  1  0
  5  1  1  0
  5  4  1  0
  6  3  1  0
  7  6  1  0
  8  7  1  0
  9  7  2  0
 10  9  1  0
 11  9  1  0
 12 11  2  0
 13  8  1  0
 13 12  1  0
 14  2  1  0
 14  8  1  0
 15  4  1  0
 16 15  2  0
 17 15  1  0
 18 17  2  0
 19 16  1  0
 20 18  1  0
 20 19  2  0
 21 20  1  0
 22 12  1  0
 22 13  1  0
 23 21  1  0
 24 22  2  0
 25 23  1  0
 26 18  1  0
 26 25  1  0
M  END
>  <ID>  (1) 
conformer_0

$$$$
