
     RDKit          3D

 22 23  0  0  0  0  0  0  0  0999 V2000
  102.2611    3.4334  -92.8967 C   0  0  0  0  0  0  0  0  0  0  0  0
  103.0611    2.2334  -92.7967 C   0  0  0  0  0  0  0  0  0  0  0  0
  102.2611    1.0334  -92.5967 O   0  0  0  0  0  0  0  0  0  0  0  0
  100.7611    3.4334  -92.8967 C   0  0  0  0  0  0  0  0  0  0  0  0
  100.2611    4.7334  -92.3967 C   0  0  0  0  0  0  0  0  0  0  0  0
  102.6611    4.5334  -92.0967 O   0  0  0  0  0  0  0  0  0  0  0  0
  101.5611    5.4334  -91.7967 C   0  0  0  0  0  0  0  0  0  0  0  0
  100.1611    2.4334  -93.5967 O   0  0  0  0  0  0  0  0  0  0  0  0
  101.7611    6.7334  -92.0967 N   0  0  0  0  0  0  0  0  0  0  0  0
  101.4611    7.8334  -91.2967 C   0  0  0  0  0  3  0  0  0  0  0  0
  100.1611    7.8334  -90.7967 N   0  0  0  0  0  0  0  0  0  0  0  0
  102.2611    8.8334  -91.4967 C   0  0  0  0  0  0  0  0  0  0  0  0
   99.4611    9.0334  -90.8967 C   0  0  0  0  0  0  0  0  0  0  0  0
  100.2611   10.2334  -90.7967 N   0  0  0  0  0  0  0  0  0  0  0  0
   98.1611    9.2334  -90.9967 N   0  0  0  0  0  0  0  0  0  0  0  0
  101.4611    9.9334  -90.8967 N   0  0  0  0  0  0  0  0  0  0  0  0
   99.2611    5.3334  -92.7967 O   0  0  0  0  0  0  0  0  0  0  0  0
  104.4611    2.5334  -92.7967 O   0  0  0  0  0  0  0  0  0  0  0  0
  105.6611    2.1334  -92.1967 P   0  0  0  0  0  4  0  0  0  0  0  0
  106.5611    3.2334  -92.3967 O   0  0  0  0  0  1  0  0  0  0  0  0
  105.6611    1.6334  -90.7967 O   0  0  0  0  0  0  0  0  0  0  0  0
  106.1611    0.9334  -92.8967 O   0  0  0  0  0  0  0  0  0  0  0  0
  2  1  1  0
  3  2  2  0
  4  1  1  0
  5  4  1  0
  6  1  1  0
  7  5  1  0
  7  6  1  0
  8  4  1  0
  9  7  1  0
 10  9  1  0
 11 10  1  0
 12 10  1  0
 13 11  2  0
 14 13  1  0
 15 13  1  0
 16 12  1  0
 16 14  1  0
 17  5  2  0
 18  2  1  0
 19 18  1  0
 20 19  2  0
 21 19  1  0
 22 19  1  0
M  END
>  <ID>  (1) 
conformer_0

$$$$
