
     RDKit          3D

 21 24  0  0  0  0  0  0  0  0999 V2000
  103.6991    2.1393  -93.0077 C   0  0  0  0  0  0  0  0  0  0  0  0
  102.3991    1.7393  -93.6077 C   0  0  0  0  0  0  0  0  0  0  0  0
  101.2991    2.6393  -93.2077 C   0  0  0  0  0  0  0  0  0  0  0  0
  101.8991    3.9393  -93.1077 C   0  0  0  0  0  0  0  0  0  0  0  0
  101.1991    4.9393  -92.3077 N   0  0  0  0  0  0  0  0  0  0  0  0
  100.0991    4.2393  -91.7077 C   0  0  0  0  0  0  0  0  0  0  0  0
   98.7991    4.9393  -91.6077 C   0  0  0  0  0  0  0  0  0  0  0  0
  100.7991    6.2393  -92.5077 C   0  0  0  0  0  0  0  0  0  0  0  0
  100.0991    6.9393  -91.5077 C   0  0  0  0  0  0  0  0  0  0  0  0
   98.6991    7.3393  -91.5077 C   0  0  0  0  0  0  0  0  0  0  0  0
  100.7991    8.1393  -91.0077 C   0  0  0  0  0  0  0  0  0  0  0  0
   98.4991    8.7393  -91.1077 N   0  0  0  0  0  0  0  0  0  0  0  0
   99.8991    9.1393  -90.9077 N   0  0  0  0  0  0  0  0  0  0  0  0
  101.9991    8.5393  -91.5077 C   0  0  0  0  0  0  0  0  0  0  0  0
  103.3991    2.5393  -91.6077 C   0  0  0  0  0  0  0  0  0  0  0  0
  100.4991   10.3393  -90.8077 N   0  0  0  0  0  0  0  0  0  0  0  0
  101.8991    9.9393  -91.0077 N   0  0  0  0  0  0  0  0  0  0  0  0
  104.3991    0.8393  -92.8077 O   0  0  0  0  0  0  0  0  0  0  0  0
  104.5991    2.9393  -90.9077 O   0  0  0  0  0  0  0  0  0  0  0  0
  103.7991    4.0393  -91.4077 C   0  0  0  0  0  0  0  0  0  0  0  0
   99.6991    4.7393  -90.5077 C   0  0  0  0  0  0  0  0  0  0  0  0
  2  1  1  0
  3  2  1  0
  4  3  1  0
  5  4  1  0
  6  5  1  0
  7  6  1  0
  8  5  1  0
  9  8  1  0
 10  9  2  0
 11  9  1  0
 12 10  1  0
 13 11  1  0
 13 12  1  0
 14 11  2  0
 15  1  1  0
 16 13  1  0
 17 14  1  0
 17 16  2  0
 18  1  1  0
 19 15  1  0
 20 15  1  0
 20 19  1  0
 21  6  1  0
 21  7  1  0
M  END
>  <ID>  (1) 
conformer_0

$$$$
