
     RDKit          3D

 24 27  0  0  0  0  0  0  0  0999 V2000
  103.6991    2.1393  -93.0077 C   0  0  0  0  0  0  0  0  0  0  0  0
  102.3991    1.7393  -93.6077 C   0  0  0  0  0  0  0  0  0  0  0  0
  101.2991    2.6393  -93.2077 C   0  0  0  0  0  0  0  0  0  0  0  0
  101.8991    3.9393  -93.1077 C   0  0  0  0  0  0  0  0  0  0  0  0
  101.1991    4.9393  -92.3077 N   0  0  0  0  0  0  0  0  0  0  0  0
  100.0991    4.3393  -91.6077 C   0  0  0  0  0  0  0  0  0  0  0  0
  100.9991    6.3393  -92.5077 C   0  0  0  0  0  3  0  0  0  0  0  0
   99.6991    6.8393  -92.0077 C   0  0  0  0  0  0  0  0  0  0  0  0
   99.0991    5.6393  -91.4077 C   0  0  0  0  0  0  0  0  0  0  0  0
   99.5991    8.0393  -91.3077 C   0  0  0  0  0  0  0  0  0  0  0  0
   98.3991    8.5393  -91.1077 N   0  0  0  0  0  0  0  0  0  0  0  0
  100.5991    8.8393  -91.1077 N   0  0  0  0  0  0  0  0  0  0  0  0
   98.2991    9.9393  -90.9077 C   0  0  0  0  0  0  0  0  0  0  0  0
   99.1991   10.8393  -91.5077 C   0  0  0  0  0  0  0  0  0  0  0  0
  100.3991   10.2393  -91.2077 C   0  0  0  0  0  0  0  0  0  0  0  0
  104.8991    2.2393  -93.7077 O   0  0  0  0  0  0  0  0  0  0  0  0
  103.3991    2.4393  -91.6077 C   0  0  0  0  0  0  0  0  0  0  0  0
  104.5991    3.1393  -91.1077 O   0  0  0  0  0  0  0  0  0  0  0  0
  105.4991    3.6393  -91.9077 C   0  0  0  0  0  0  0  0  0  0  0  0
  106.6991    3.4393  -92.6077 O   0  0  0  0  0  0  0  0  0  0  0  0
   98.5991    6.1393  -92.5077 C   0  0  0  0  0  0  0  0  0  0  0  0
  105.5991    5.0393  -91.4077 C   0  0  0  0  0  0  0  0  0  0  0  0
  104.8991    1.3393  -92.7077 C   0  0  0  0  0  0  0  0  0  0  0  0
  101.3991   10.7393  -90.5077 O   0  0  0  0  0  0  0  0  0  0  0  0
  2  1  1  0
  3  2  1  0
  4  3  1  0
  5  4  1  0
  6  5  1  0
  7  5  1  0
  8  7  1  0
  9  6  2  0
  9  8  1  0
 10  8  1  0
 11 10  2  0
 12 10  1  0
 13 11  1  0
 14 13  1  0
 15 12  1  0
 15 14  1  0
 16  1  1  0
 17  1  1  0
 18 17  1  0
 19 18  1  0
 20 19  2  0
 21  8  1  0
 21  9  1  0
 22 19  1  0
 23  1  1  0
 23 16  1  0
 24 15  2  0
M  END
>  <ID>  (1) 
conformer_0

$$$$
