
     RDKit          3D

  5  4  0  0  0  0  0  0  0  0999 V2000
  105.7481    2.9247  -93.0723 O   0  0  0  0  0  1  0  0  0  0  0  0
  106.2481    3.0247  -91.6723 P   0  0  0  0  0  4  0  0  0  0  0  0
  106.0481    1.9247  -90.6723 O   0  0  0  0  0  0  0  0  0  0  0  0
  106.1481    4.3247  -90.9723 O   0  0  0  0  0  0  0  0  0  0  0  0
  107.6481    3.3247  -92.0723 O   0  0  0  0  0  0  0  0  0  0  0  0
  2  1  2  0
  3  2  1  0
  4  2  1  0
  5  2  1  0
M  END
>  <ID>  (1) 
conformer_0

$$$$
