
     RDKit          3D

 27 31  0  0  0  0  0  0  0  0999 V2000
  103.6991    2.1393  -93.0077 C   0  0  0  0  0  0  0  0  0  0  0  0
  102.3991    1.7393  -93.6077 C   0  0  0  0  0  0  0  0  0  0  0  0
  101.2991    2.6393  -93.2077 C   0  0  0  0  0  0  0  0  0  0  0  0
  101.8991    3.9393  -93.1077 C   0  0  0  0  0  0  0  0  0  0  0  0
  101.1991    4.9393  -92.3077 N   0  0  0  0  0  0  0  0  0  0  0  0
  100.0991    4.3393  -91.6077 C   0  0  0  0  0  0  0  0  0  0  0  0
  100.9991    6.3393  -92.5077 C   0  0  0  0  0  0  0  0  0  0  0  0
   99.6991    6.8393  -92.0077 C   0  0  0  0  0  0  0  0  0  0  0  0
   99.0991    5.6393  -91.4077 C   0  0  0  0  0  0  0  0  0  0  0  0
   99.3991    7.9393  -91.3077 C   0  0  0  0  0  0  0  0  0  0  0  0
   98.7991    7.7393  -90.1077 N   0  0  0  0  0  0  0  0  0  0  0  0
   98.4991    5.5393  -90.3077 N   0  0  0  0  0  0  0  0  0  0  0  0
   98.0991    6.7393  -89.7077 C   0  0  0  0  0  0  0  0  0  0  0  0
  103.3991    3.5393  -92.6077 C   0  0  0  0  0  0  0  0  0  0  0  0
   98.5991    4.3393  -89.6077 C   0  0  0  0  0  0  0  0  0  0  0  0
   99.0991    4.5393  -92.3077 O   0  0  0  0  0  0  0  0  0  0  0  0
  100.2991    9.0393  -91.2077 N   0  0  0  0  0  0  0  0  0  0  0  0
   99.7991   10.3393  -91.2077 C   0  0  0  0  0  0  0  0  0  0  0  0
   98.3991   10.4393  -91.4077 C   0  0  0  0  0  0  0  0  0  0  0  0
   98.7991    4.7393  -88.2077 C   0  0  0  0  0  0  0  0  0  0  0  0
   99.3991    3.6393  -87.4077 C   0  0  0  0  0  0  0  0  0  0  0  0
   97.4991    5.2393  -87.7077 C   0  0  0  0  0  0  0  0  0  0  0  0
  104.3991    1.3393  -92.2077 O   0  0  0  0  0  0  0  0  0  0  0  0
  105.3991    2.3393  -92.0077 P   0  0  0  0  0  0  0  0  0  0  0  0
  105.9991    2.6393  -93.3077 O   0  0  0  0  0  1  0  0  0  0  0  0
  105.2991    3.3393  -90.9077 O   0  0  0  0  0  1  0  0  0  0  0  0
   97.3991    6.7393  -88.4077 C   0  0  0  0  0  0  0  0  0  0  0  0
  2  1  1  0
  3  2  1  0
  4  3  1  0
  5  4  1  0
  6  5  1  0
  7  5  1  0
  8  7  1  0
  9  6  1  0
  9  8  1  0
 10  8  1  0
 11 10  2  0
 12  9  1  0
 13 11  1  0
 13 12  1  0
 14  1  1  0
 14  4  1  0
 15 12  1  0
 16  6  1  0
 16  9  1  0
 17 10  1  0
 18 17  1  0
 19 18  1  0
 20 15  1  0
 21 20  1  0
 22 20  1  0
 23  1  1  0
 24 23  1  0
 25 24  1  0
 26 24  1  0
 27 13  1  0
 27 22  1  0
M  END
>  <ID>  (1) 
conformer_0

$$$$
