
     RDKit          3D

 26 31  0  0  0  0  0  0  0  0999 V2000
   98.7447    3.8805  -91.4301 C   0  0  0  0  0  0  0  0  0  0  0  0
  100.0447    3.8805  -92.1301 C   0  0  0  0  0  0  0  0  0  0  0  0
  100.6447    5.1805  -92.2301 N   0  0  0  0  0  0  0  0  0  0  0  0
   99.6447    6.1805  -92.1301 C   0  0  0  0  0  0  0  0  0  0  0  0
   98.3447    5.2805  -91.7301 C   0  0  0  0  0  0  0  0  0  0  0  0
  101.6447    5.1805  -93.2301 C   0  0  0  0  0  0  0  0  0  0  0  0
  102.5447    4.0805  -92.9301 C   0  0  0  0  0  0  0  0  0  0  0  0
  102.0447    2.7805  -93.0301 C   0  0  0  0  0  0  0  0  0  0  0  0
  103.7447    4.3805  -92.1301 C   0  0  0  0  0  0  0  0  0  0  0  0
  104.0447    5.5805  -91.8301 N   0  0  0  0  0  0  0  0  0  0  0  0
  103.9446    3.1805  -91.4301 N   0  0  0  0  0  0  0  0  0  0  0  0
  103.9446    1.8805  -91.9301 C   0  0  0  0  0  0  0  0  0  0  0  0
  102.8447    1.6805  -92.8301 N   0  0  0  0  0  0  0  0  0  0  0  0
   99.7447    7.3805  -91.3301 C   0  0  0  0  0  0  0  0  0  0  0  0
  100.6447    8.2805  -90.9301 C   0  0  0  0  0  0  0  0  0  0  0  0
   98.4446    7.6805  -90.7301 C   0  0  0  0  0  0  0  0  0  0  0  0
   98.2447    8.9805  -90.3301 C   0  0  0  0  0  0  0  0  0  0  0  0
  100.4447    9.6805  -91.1301 C   0  0  0  0  0  0  0  0  0  0  0  0
   99.0447    9.9805  -91.1301 C   0  0  0  0  0  0  0  0  0  0  0  0
  100.5447    2.7805  -93.0301 C   0  0  0  0  0  0  0  0  0  0  0  0
   98.6447   11.1805  -91.5301 N   0  0  0  0  0  0  0  0  0  0  0  0
   98.0447   12.2805  -91.0301 C   0  0  0  0  0  0  0  0  0  0  0  0
  104.2447    0.6805  -91.2301 O   0  0  0  0  0  0  0  0  0  0  0  0
  102.6447    0.2805  -93.1301 C   0  0  0  0  0  0  0  0  0  0  0  0
   97.3447   11.1805  -90.9301 C   0  0  0  0  0  0  0  0  0  0  0  0
  103.3447   -0.3195  -91.8301 C   0  0  0  0  0  0  0  0  0  0  0  0
  2  1  1  0
  3  2  1  0
  4  3  1  0
  5  1  1  0
  5  4  1  0
  6  3  1  0
  7  6  1  0
  8  7  1  0
  9  7  1  0
 10  9  2  0
 11  9  1  0
 12 11  2  0
 13  8  1  0
 13 12  1  0
 14  4  1  0
 15 14  2  0
 16 14  1  0
 17 16  2  0
 18 15  1  0
 19 17  1  0
 19 18  2  0
 20  2  1  0
 20  8  1  0
 21 19  1  0
 22 21  1  0
 23 12  1  0
 24 13  1  0
 25 21  1  0
 25 22  1  0
 26 23  1  0
 26 24  1  0
M  END
>  <ID>  (1) 
conformer_0

$$$$
