
     RDKit          3D

 27 31  0  0  0  0  0  0  0  0999 V2000
  103.6991    2.1393  -93.0077 C   0  0  0  0  0  0  0  0  0  0  0  0
  102.3991    1.7393  -93.6077 C   0  0  0  0  0  0  0  0  0  0  0  0
  101.2991    2.6393  -93.2077 C   0  0  0  0  0  0  0  0  0  0  0  0
  101.8991    3.9393  -93.1077 C   0  0  0  0  0  0  0  0  0  0  0  0
  101.1991    4.9393  -92.3077 N   0  0  0  0  0  0  0  0  0  0  0  0
  100.0991    4.3393  -91.6077 C   0  0  0  0  0  0  0  0  0  0  0  0
  100.9991    6.3393  -92.5077 C   0  0  0  0  0  0  0  0  0  0  0  0
   99.6991    6.8393  -92.0077 C   0  0  0  0  0  0  0  0  0  0  0  0
   99.0991    5.6393  -91.4077 C   0  0  0  0  0  0  0  0  0  0  0  0
   99.5991    8.0393  -91.3077 C   0  0  0  0  0  0  0  0  0  0  0  0
   98.3991    8.5393  -91.1077 N   0  0  0  0  0  0  0  0  0  0  0  0
  100.6991    8.9393  -91.2077 N   0  0  0  0  0  0  0  0  0  0  0  0
  101.9991    8.3393  -91.4077 C   0  0  0  0  0  0  0  0  0  0  0  0
  100.1991   10.2393  -91.3077 C   0  0  0  0  0  0  0  0  0  0  0  0
   98.9991   10.7393  -91.2077 C   0  0  0  0  0  0  0  0  0  0  0  0
  103.4991    2.8393  -91.7077 C   0  0  0  0  0  0  0  0  0  0  0  0
  104.7991    3.0393  -91.1077 O   0  0  0  0  0  0  0  0  0  0  0  0
  105.9991    2.5393  -91.8077 P   0  0  0  0  0  4  0  0  0  0  0  0
  105.9991    2.8393  -93.2077 O   0  0  0  0  0  0  0  0  0  0  0  0
  106.7991    1.9393  -90.7077 O   0  0  0  0  0  1  0  0  0  0  0  0
   98.0991    9.8393  -90.7077 O   0  0  0  0  0  0  0  0  0  0  0  0
   98.8991   12.1393  -90.7077 C   0  0  0  0  0  0  0  0  0  0  0  0
   98.4991    6.2393  -92.3077 C   0  0  0  0  0  0  0  0  0  0  0  0
  106.7991    3.6393  -92.4077 O   0  0  0  0  0  0  0  0  0  0  0  0
  100.7991    3.5393  -93.9077 O   0  0  0  0  0  0  0  0  0  0  0  0
  102.1991    7.1393  -92.1077 C   0  0  0  0  0  0  0  0  0  0  0  0
  100.3991    4.0393  -90.4077 O   0  0  0  0  0  0  0  0  0  0  0  0
  2  1  1  0
  3  2  1  0
  4  3  1  0
  5  4  1  0
  6  5  1  0
  7  5  1  0
  8  7  1  0
  9  6  1  0
  9  8  1  0
 10  8  1  0
 11 10  2  0
 12 10  1  0
 13 12  1  0
 14 12  1  0
 15 14  1  0
 16  1  1  0
 17 16  1  0
 18 17  1  0
 19 18  1  0
 20 18  2  0
 21 11  1  0
 21 15  1  0
 22 15  1  0
 23  8  1  0
 23  9  1  0
 24 18  1  0
 25  3  1  0
 25  4  1  0
 26  7  1  0
 26 13  2  0
 27  6  1  0
M  END
>  <ID>  (1) 
conformer_0

$$$$
