
     RDKit          3D

 13 15  0  0  0  0  0  0  0  0999 V2000
   98.8916    4.0686  -91.4231 C   0  0  0  0  0  0  0  0  0  0  0  0
  100.0916    4.0686  -92.2231 C   0  0  0  0  0  0  0  0  0  0  0  0
  101.0916    5.0686  -92.0231 N   0  0  0  0  0  0  0  0  0  0  0  0
  100.8916    6.4686  -92.4231 C   0  0  0  0  0  0  0  0  0  0  0  0
  102.4916    4.5686  -92.0231 C   0  0  0  0  0  0  0  0  0  0  0  0
  102.4916    3.1686  -92.4231 C   0  0  0  0  0  0  0  0  0  0  0  0
   99.4916    6.5686  -92.0231 C   0  0  0  0  0  0  0  0  0  0  0  0
   98.6916    5.5686  -91.3231 N   0  0  0  0  0  0  0  0  0  0  0  0
  102.6916    2.1686  -91.5231 O   0  0  0  0  0  0  0  0  0  0  0  0
  101.6916    2.9686  -93.6231 C   0  0  0  0  0  0  0  0  0  0  0  0
  100.2916    2.9686  -93.2231 C   0  0  0  0  0  0  0  0  0  0  0  0
   99.5916    6.0686  -90.4231 C   0  0  0  0  0  0  0  0  0  0  0  0
   99.5916    7.0686  -89.7231 O   0  0  0  0  0  0  0  0  0  0  0  0
  2  1  1  0
  3  2  1  0
  4  3  1  0
  5  3  1  0
  6  5  1  0
  7  4  1  0
  8  1  1  0
  8  7  1  0
  9  6  1  0
 10  6  1  0
 11  2  1  0
 11 10  1  0
 12  7  1  0
 12  8  1  0
 13 12  1  0
M  END
>  <ID>  (1) 
conformer_0

$$$$
