
     RDKit          3D

 24 25  0  0  0  0  0  0  0  0999 V2000
  106.9415    3.3721  -92.7653 O   0  0  0  0  0  1  0  0  0  0  0  0
  106.0415    2.7721  -91.7653 P   0  0  0  0  0  4  0  0  0  0  0  0
  106.1415    1.8721  -90.6653 O   0  0  0  0  0  0  0  0  0  0  0  0
  104.6415    3.2721  -91.9653 O   0  0  0  0  0  0  0  0  0  0  0  0
  103.5415    2.5721  -91.4653 C   0  0  0  0  0  0  0  0  0  0  0  0
  102.4415    2.7721  -92.4653 C   0  0  0  0  0  0  0  0  0  0  0  0
  102.2415    4.1721  -92.8653 C   0  0  0  0  0  0  0  0  0  0  0  0
  102.8415    1.9721  -93.6653 O   0  0  0  0  0  0  0  0  0  0  0  0
  100.9415    4.7721  -92.6653 C   0  0  0  0  0  0  0  0  0  0  0  0
  100.9415    6.1721  -92.3653 C   0  0  0  0  0  0  0  0  0  0  0  0
  100.1415    6.8721  -91.4653 N   0  0  0  0  0  0  0  0  0  0  0  0
  100.2415    8.1721  -91.1653 N   0  0  0  0  0  4  0  0  0  0  0  0
   99.0415    8.9721  -91.0653 C   0  0  0  0  0  3  0  0  0  0  0  0
   98.7415    6.6721  -91.8653 C   0  0  0  0  0  0  0  0  0  0  0  0
  101.4415    8.9721  -91.3653 C   0  0  0  0  0  0  0  0  0  0  0  0
   99.4415   10.3721  -91.0653 C   0  0  0  0  0  0  0  0  0  0  0  0
   98.5415   11.1721  -91.6653 N   0  0  0  0  0  0  0  0  0  0  0  0
  100.7415   10.3721  -91.1653 N   0  0  0  0  0  0  0  0  0  0  0  0
   99.6415    8.4721  -90.0653 N   0  0  0  0  0  0  0  0  0  0  0  0
   98.6415    5.2721  -91.7653 C   0  0  0  0  0  0  0  0  0  0  0  0
   99.6415    4.3721  -92.3653 O   0  0  0  0  0  0  0  0  0  0  0  0
   98.7415    4.8721  -90.3653 C   0  0  0  0  0  0  0  0  0  0  0  0
   97.9415    3.7721  -89.8653 O   0  0  0  0  0  0  0  0  0  0  0  0
  106.5415    3.2721  -90.5653 O   0  0  0  0  0  0  0  0  0  0  0  0
  2  1  2  0
  3  2  1  0
  4  2  1  0
  5  4  1  0
  6  5  1  0
  7  6  1  0
  8  6  1  0
  9  7  1  0
 10  9  1  0
 11 10  1  0
 12 11  1  0
 13 12  1  0
 14 11  1  0
 15 12  1  0
 16 13  1  0
 17 16  1  0
 18 15  1  0
 18 16  2  0
 19 13  1  0
 20 14  1  0
 21  9  1  0
 21 20  1  0
 22 20  1  0
 23 22  1  0
 24  2  1  0
M  END
>  <ID>  (1) 
conformer_0

$$$$
