
     RDKit          3D

  9 10  0  0  0  0  0  0  0  0999 V2000
  102.9327    2.8215  -93.0743 C   0  0  0  0  0  0  0  0  0  0  0  0
  101.5327    2.5215  -93.2743 C   0  0  0  0  0  0  0  0  0  0  0  0
  100.6327    3.5215  -92.7743 C   0  0  0  0  0  0  0  0  0  0  0  0
  101.2327    4.8215  -92.9743 C   0  0  0  0  0  0  0  0  0  0  0  0
  101.5327    4.2215  -91.6743 N   0  0  0  0  0  0  0  0  0  0  0  0
  102.9327    3.8215  -91.7743 C   0  0  0  0  0  0  0  0  0  0  0  0
  104.0327    4.8215  -91.9743 C   0  0  0  0  0  0  0  0  0  0  0  0
  105.3327    4.2215  -91.6743 O   0  0  0  0  0  0  0  0  0  0  0  0
  106.1327    5.2215  -91.0743 C   0  0  0  0  0  0  0  0  0  0  0  0
  2  1  1  0
  3  2  1  0
  4  3  1  0
  5  3  1  0
  5  4  1  0
  6  1  1  0
  6  5  1  0
  7  6  1  0
  8  7  1  0
  9  8  1  0
M  END
>  <ID>  (1) 
conformer_0

$$$$
