
     RDKit          3D

 22 25  0  0  0  0  0  0  0  0999 V2000
   98.7447    3.8805  -91.4301 C   0  0  0  0  0  0  0  0  0  0  0  0
  100.0447    3.8805  -92.1301 C   0  0  0  0  0  0  0  0  0  0  0  0
  100.6447    5.1805  -92.2301 N   0  0  0  0  0  0  0  0  0  0  0  0
   99.6447    6.1805  -92.1301 C   0  0  0  0  0  0  0  0  0  0  0  0
   98.3447    5.2805  -91.7301 C   0  0  0  0  0  0  0  0  0  0  0  0
  101.6447    5.1805  -93.2301 C   0  0  0  0  0  0  0  0  0  0  0  0
  102.5447    4.0805  -92.9301 C   0  0  0  0  0  0  0  0  0  0  0  0
  102.0447    2.7805  -93.0301 C   0  0  0  0  0  0  0  0  0  0  0  0
  103.7447    4.3805  -92.1301 C   0  0  0  0  0  0  0  0  0  0  0  0
  104.0447    5.5805  -91.8301 N   0  0  0  0  0  0  0  0  0  0  0  0
  104.4446    3.2805  -92.2301 N   0  0  0  0  0  0  0  0  0  0  0  0
  104.2447    1.9805  -92.5301 C   0  0  0  0  0  0  0  0  0  0  0  0
  102.9447    1.7805  -93.0301 C   0  0  0  0  0  0  0  0  0  0  0  0
  100.0447    7.1805  -91.1301 C   0  0  0  0  0  0  0  0  0  0  0  0
  100.2447    8.5805  -91.1301 C   0  0  0  0  0  0  0  0  0  0  0  0
   99.6447    9.6805  -91.1301 C   0  0  0  0  0  0  0  0  0  0  0  0
  100.3447   10.7805  -90.6301 O   0  0  0  0  0  0  0  0  0  0  0  0
   98.2447    9.3805  -90.7301 C   0  0  0  0  0  0  0  0  0  0  0  0
   98.0447    8.1805  -90.1301 C   0  0  0  0  0  0  0  0  0  0  0  0
   99.0447    7.1805  -89.9301 C   0  0  0  0  0  0  0  0  0  0  0  0
  100.5447    2.8805  -93.0301 N   0  0  0  0  0  0  0  0  0  0  0  0
  105.2447    0.9805  -92.1301 C   0  0  0  0  0  0  0  0  0  0  0  0
  2  1  1  0
  3  2  1  0
  4  3  1  0
  5  1  1  0
  5  4  1  0
  6  3  1  0
  7  6  1  0
  8  7  2  0
  9  7  1  0
 10  9  1  0
 11  9  2  0
 12 11  1  0
 13  8  1  0
 13 12  2  0
 14  4  1  0
 15 14  2  0
 16 15  1  0
 17 16  1  0
 18 16  2  0
 19 18  1  0
 20 14  1  0
 20 19  2  0
 21  2  1  0
 21  8  1  0
 22 12  1  0
M  END
>  <ID>  (1) 
conformer_0

$$$$
