
     RDKit          3D

 24 27  0  0  0  0  0  0  0  0999 V2000
  103.6991    2.1393  -93.0077 C   0  0  0  0  0  0  0  0  0  0  0  0
  102.3991    1.7393  -93.6077 C   0  0  0  0  0  0  0  0  0  0  0  0
  101.2991    2.6393  -93.2077 C   0  0  0  0  0  0  0  0  0  0  0  0
  101.8991    3.9393  -93.1077 C   0  0  0  0  0  0  0  0  0  0  0  0
  101.1991    4.9393  -92.3077 N   0  0  0  0  0  0  0  0  0  0  0  0
  100.0991    4.2393  -91.7077 C   0  0  0  0  0  0  0  0  0  0  0  0
   98.7991    4.9393  -91.6077 C   0  0  0  0  0  0  0  0  0  0  0  0
  100.7991    6.2393  -92.6077 C   0  0  0  0  0  0  0  0  0  0  0  0
  100.2991    7.0393  -91.5077 C   0  0  0  0  0  0  0  0  0  0  0  0
   98.8991    7.4393  -91.3077 C   0  0  0  0  0  0  0  0  0  0  0  0
  101.1991    8.1393  -91.2077 C   0  0  0  0  0  0  0  0  0  0  0  0
  100.3991    9.3393  -90.9077 N   0  0  0  0  0  0  0  0  0  0  0  0
  102.5991    8.1393  -91.3077 C   0  0  0  0  0  0  0  0  0  0  0  0
   99.0991    8.7393  -90.7077 N   0  0  0  0  0  0  0  0  0  0  0  0
   97.9991    9.6393  -90.6077 C   0  0  0  0  0  0  0  0  0  0  0  0
   98.5991   10.8393  -90.9077 C   0  0  0  0  0  0  0  0  0  0  0  0
   98.0991   11.9393  -91.4077 N   0  0  0  0  0  0  0  0  0  0  0  0
  103.2991    3.4393  -92.4077 C   0  0  0  0  0  0  0  0  0  0  0  0
   99.5991    4.8393  -90.4077 C   0  0  0  0  0  0  0  0  0  0  0  0
  104.2991    1.1393  -92.3077 O   0  0  0  0  0  0  0  0  0  0  0  0
   99.8991   10.5393  -91.4077 N   0  0  0  0  0  0  0  0  0  0  0  0
  103.6991    7.5393  -91.3077 N   0  0  0  0  0  0  0  0  0  0  0  0
  102.7991    6.7393  -91.5077 N   0  0  0  0  0  0  0  0  0  0  0  0
  101.9991    0.4393  -93.4077 O   0  0  0  0  0  0  0  0  0  0  0  0
  2  1  1  0
  3  2  1  0
  4  3  1  0
  5  4  1  0
  6  5  1  0
  7  6  1  0
  8  5  1  0
  9  8  1  0
 10  9  1  0
 11  9  1  0
 12 11  1  0
 13 11  1  0
 14 10  1  0
 14 12  1  0
 15 14  1  0
 16 15  1  0
 17 16  1  0
 18  1  1  0
 18  4  1  0
 19  6  1  0
 19  7  1  0
 20  1  1  0
 21 12  1  0
 21 16  2  0
 22 13  2  0
 23 13  1  0
 24  2  1  0
M  END
>  <ID>  (1) 
conformer_0

$$$$
