
     RDKit          3D

 24 27  0  0  0  0  0  0  0  0999 V2000
  103.6991    2.1393  -93.0077 C   0  0  0  0  0  0  0  0  0  0  0  0
  102.3991    1.7393  -93.6077 C   0  0  0  0  0  0  0  0  0  0  0  0
  101.2991    2.6393  -93.2077 C   0  0  0  0  0  0  0  0  0  0  0  0
  101.8991    3.9393  -93.1077 C   0  0  0  0  0  0  0  0  0  0  0  0
  101.1991    4.9393  -92.3077 N   0  0  0  0  0  0  0  0  0  0  0  0
  100.0991    4.3393  -91.6077 C   0  0  0  0  0  0  0  0  0  0  0  0
  100.9991    6.3393  -92.5077 C   0  0  0  0  0  0  0  0  0  0  0  0
   98.8991    5.1393  -91.6077 C   0  0  0  0  0  0  0  0  0  0  0  0
  100.5991    7.1393  -91.3077 C   0  0  0  0  0  0  0  0  0  0  0  0
  100.7991    8.5393  -91.2077 C   0  0  0  0  0  0  0  0  0  0  0  0
   99.7991    9.5393  -91.1077 C   0  0  0  0  0  0  0  0  0  0  0  0
  102.0991    9.0393  -91.5077 C   0  0  0  0  0  0  0  0  0  0  0  0
   98.4991    8.8393  -91.2077 N   0  0  0  0  0  0  0  0  0  0  0  0
   99.1991    6.6393  -91.1077 C   0  0  0  0  0  0  0  0  0  0  0  0
   98.1991    7.5393  -90.9077 C   0  0  0  0  0  0  0  0  0  0  0  0
   99.7991   10.8393  -91.2077 C   0  0  0  0  0  0  0  0  0  0  0  0
   98.7991   11.6393  -91.7077 N   0  0  0  0  0  0  0  0  0  0  0  0
  104.2991    1.1393  -92.3077 O   0  0  0  0  0  0  0  0  0  0  0  0
  103.4991    2.3393  -91.7077 C   0  0  0  0  0  0  0  0  0  0  0  0
  104.4991    3.1393  -91.0077 O   0  0  0  0  0  0  0  0  0  0  0  0
  105.2991    3.7393  -92.0077 C   0  0  0  0  0  0  0  0  0  0  0  0
   98.4991   11.2393  -90.6077 C   0  0  0  0  0  0  0  0  0  0  0  0
  103.1991    8.1393  -91.3077 C   0  0  0  0  0  0  0  0  0  0  0  0
  106.2991    3.0393  -92.8077 O   0  0  0  0  0  0  0  0  0  0  0  0
  2  1  1  0
  3  2  1  0
  4  3  1  0
  5  4  1  0
  6  5  1  0
  7  5  1  0
  8  6  1  0
  9  7  1  0
 10  9  1  0
 11 10  2  0
 12 10  1  0
 13 11  1  0
 14  8  1  0
 14  9  1  0
 15 13  1  0
 15 14  1  0
 16 11  1  0
 17 16  1  0
 18  1  1  0
 19  1  1  0
 19 18  1  0
 20 19  1  0
 21 20  1  0
 22 16  1  0
 22 17  1  0
 23 12  1  0
 24 21  1  0
M  END
>  <ID>  (1) 
conformer_0

$$$$
