
     RDKit          3D

 24 27  0  0  0  0  0  0  0  0999 V2000
  103.6991    2.1393  -93.0077 C   0  0  0  0  0  0  0  0  0  0  0  0
  102.3991    1.7393  -93.6077 C   0  0  0  0  0  0  0  0  0  0  0  0
  101.2991    2.6393  -93.2077 C   0  0  0  0  0  0  0  0  0  0  0  0
  101.8991    3.9393  -93.1077 C   0  0  0  0  0  0  0  0  0  0  0  0
  101.1991    4.9393  -92.3077 N   0  0  0  0  0  0  0  0  0  0  0  0
  100.0991    4.2393  -91.7077 C   0  0  0  0  0  0  0  0  0  0  0  0
   98.7991    4.9393  -91.6077 C   0  0  0  0  0  0  0  0  0  0  0  0
  100.7991    6.2393  -92.5077 C   0  0  0  0  0  0  0  0  0  0  0  0
  100.0991    6.9393  -91.5077 C   0  0  0  0  0  0  0  0  0  0  0  0
   98.6991    7.3393  -91.5077 C   0  0  0  0  0  0  0  0  0  0  0  0
  100.7991    8.1393  -91.0077 C   0  0  0  0  0  0  0  0  0  0  0  0
  100.2991    9.3393  -90.9077 N   0  0  0  0  0  0  0  0  0  0  0  0
  102.1991    7.9393  -91.1077 C   0  0  0  0  0  0  0  0  0  0  0  0
  101.3991   10.1393  -90.8077 O   0  0  0  0  0  0  0  0  0  0  0  0
  102.4991    9.3393  -91.4077 C   0  0  0  0  0  0  0  0  0  0  0  0
  103.4991    2.6393  -91.7077 C   0  0  0  0  0  0  0  0  0  0  0  0
  104.8991    2.2393  -93.7077 O   0  0  0  0  0  0  0  0  0  0  0  0
  104.7991    2.9393  -91.1077 O   0  0  0  0  0  0  0  0  0  0  0  0
  105.4991    2.4393  -92.3077 P   0  0  0  0  0  4  0  0  0  0  0  0
  106.6991    3.2393  -92.7077 O   0  0  0  0  0  1  0  0  0  0  0  0
   99.5991    4.7393  -90.4077 C   0  0  0  0  0  0  0  0  0  0  0  0
   98.2991    8.3393  -90.8077 N   0  0  0  0  0  0  0  0  0  0  0  0
   98.8991    9.5393  -90.9077 C   0  0  0  0  0  0  0  0  0  0  0  0
   98.1991   10.8393  -90.9077 C   0  0  0  0  0  0  0  0  0  0  0  0
  2  1  1  0
  3  2  1  0
  4  3  1  0
  5  4  1  0
  6  5  1  0
  7  6  1  0
  8  5  1  0
  9  8  1  0
 10  9  2  0
 11  9  1  0
 12 11  1  0
 13 11  2  0
 14 12  1  0
 15 13  1  0
 15 14  1  0
 16  1  1  0
 17  1  1  0
 18 16  1  0
 19  1  1  0
 19 18  1  0
 20 19  2  0
 21  6  1  0
 21  7  1  0
 22 10  1  0
 23 12  1  0
 23 22  2  0
 24 23  1  0
M  END
>  <ID>  (1) 
conformer_0

$$$$
