
     RDKit          3D

 14 15  0  0  0  0  0  0  0  0999 V2000
  102.2611    3.4334  -92.8967 C   0  0  0  0  0  0  0  0  0  0  0  0
  103.0611    2.2334  -92.7967 C   0  0  0  0  0  0  0  0  0  0  0  0
  100.8611    3.2334  -92.9967 C   0  0  0  0  0  0  0  0  0  0  0  0
  102.2611    1.1334  -92.5967 O   0  0  0  0  0  0  0  0  0  0  0  0
   99.9611    4.0334  -92.1967 C   0  0  0  0  0  0  0  0  0  0  0  0
  100.7611    4.6334  -91.0967 C   0  0  0  0  0  0  0  0  0  0  0  0
  102.7611    4.5334  -92.1967 O   0  0  0  0  0  0  0  0  0  0  0  0
  101.9611    5.5334  -91.5967 C   0  0  0  0  0  0  0  0  0  0  0  0
  100.4611    4.7334  -93.3967 O   0  0  0  0  0  0  0  0  0  0  0  0
  102.3611    6.6334  -90.6967 C   0  0  0  0  0  0  0  0  0  0  0  0
  103.2611    6.0334  -89.6967 O   0  0  0  0  0  0  0  0  0  0  0  0
  100.4611    5.2334  -89.8967 O   0  0  0  0  0  0  0  0  0  0  0  0
  104.3611    2.2334  -92.1967 C   0  0  0  0  0  0  0  0  0  0  0  0
  105.4611    2.4334  -93.1967 O   0  0  0  0  0  0  0  0  0  0  0  0
  2  1  1  0
  3  1  1  0
  4  2  1  0
  5  3  1  0
  6  5  1  0
  7  1  1  0
  8  6  1  0
  8  7  1  0
  9  3  1  0
  9  5  1  0
 10  8  1  0
 11 10  1  0
 12  6  1  0
 13  2  1  0
 14 13  1  0
M  END
>  <ID>  (1) 
conformer_0

$$$$
