
     RDKit          3D

 12 14  0  0  0  0  0  0  0  0999 V2000
  100.5555    4.1806  -92.4064 C   0  0  0  0  0  0  0  0  0  0  0  0
   99.2555    4.1806  -91.7064 C   0  0  0  0  0  0  0  0  0  0  0  0
  100.9555    2.9806  -93.2064 C   0  0  0  0  0  0  0  0  0  0  0  0
  101.5555    5.0806  -91.9064 N   0  0  0  0  0  0  0  0  0  0  0  0
   99.3555    5.2806  -90.7064 C   0  0  0  0  0  0  0  0  0  0  0  0
  100.4555    5.3806  -89.7064 C   0  0  0  0  0  0  0  0  0  0  0  0
  101.8555    5.2806  -90.5064 C   0  0  0  0  0  0  0  0  0  0  0  0
  102.9555    4.9806  -90.0064 O   0  0  0  0  0  0  0  0  0  0  0  0
  102.3555    2.5806  -93.0064 C   0  0  0  0  0  0  0  0  0  0  0  0
  102.8555    2.6806  -91.6064 O   0  0  0  0  0  0  0  0  0  0  0  0
  103.2555    3.6806  -92.6064 C   0  0  0  0  0  0  0  0  0  0  0  0
  102.7555    5.0806  -92.6064 C   0  0  0  0  0  0  0  0  0  0  0  0
  2  1  1  0
  3  1  1  0
  4  1  1  0
  5  2  1  0
  6  5  1  0
  7  4  1  0
  7  6  1  0
  8  7  2  0
  9  3  1  0
 10  9  1  0
 11  9  1  0
 11 10  1  0
 12  4  1  0
 12 11  1  0
M  END
>  <ID>  (1) 
conformer_0

$$$$
