
     RDKit          3D

 18 21  0  0  0  0  0  0  0  0999 V2000
  103.6991    2.1393  -93.0077 C   0  0  0  0  0  0  0  0  0  0  0  0
  102.3991    1.7393  -93.6077 C   0  0  0  0  0  0  0  0  0  0  0  0
  101.2991    2.6393  -93.2077 C   0  0  0  0  0  0  0  0  0  0  0  0
  101.8991    3.9393  -93.1077 C   0  0  0  0  0  0  0  0  0  0  0  0
  101.1991    4.9393  -92.3077 N   0  0  0  0  0  0  0  0  0  0  0  0
  100.0991    4.3393  -91.6077 C   0  0  0  0  0  0  0  0  0  0  0  0
  100.9991    6.3393  -92.5077 C   0  0  0  0  0  0  0  0  0  0  0  0
   99.6991    6.8393  -92.0077 C   0  0  0  0  0  0  0  0  0  0  0  0
   98.4991    6.2393  -92.1077 C   0  0  0  0  0  0  0  0  0  0  0  0
   99.7991    8.1393  -91.3077 C   0  0  0  0  0  0  0  0  0  0  0  0
   98.3991    8.4393  -91.1077 N   0  0  0  0  0  0  0  0  0  0  0  0
   99.2991    5.7393  -91.1077 C   0  0  0  0  0  0  0  0  0  0  0  0
  100.6991    9.0393  -91.3077 N   0  0  0  0  0  0  0  0  0  0  0  0
  100.0991   10.3393  -91.3077 C   0  0  0  0  0  0  0  0  0  0  0  0
   98.8991   10.7393  -91.4077 C   0  0  0  0  0  0  0  0  0  0  0  0
  103.2991    3.6393  -92.7077 C   0  0  0  0  0  0  0  0  0  0  0  0
   98.5991   12.0393  -90.8077 C   0  0  0  0  0  0  0  0  0  0  0  0
   97.9991    9.7393  -90.9077 N   0  0  0  0  0  0  0  0  0  0  0  0
  2  1  1  0
  3  2  1  0
  4  3  1  0
  5  4  1  0
  6  5  1  0
  7  5  1  0
  8  7  1  0
  9  8  1  0
 10  8  1  0
 11 10  2  0
 12  6  1  0
 12  8  1  0
 12  9  1  0
 13 10  1  0
 14 13  1  0
 15 14  1  0
 16  1  1  0
 16  4  1  0
 17 15  1  0
 18 11  1  0
 18 15  1  0
M  END
>  <ID>  (1) 
conformer_0

$$$$
