
     RDKit          3D

 28 32  0  0  0  0  0  0  0  0999 V2000
   98.7447    3.8805  -91.4301 C   0  0  0  0  0  0  0  0  0  0  0  0
  100.0447    3.8805  -92.1301 C   0  0  0  0  0  0  0  0  0  0  0  0
  100.6447    5.1805  -92.2301 N   0  0  0  0  0  0  0  0  0  0  0  0
   99.6447    6.1805  -92.1301 C   0  0  0  0  0  0  0  0  0  0  0  0
   98.3447    5.2805  -91.7301 C   0  0  0  0  0  0  0  0  0  0  0  0
  101.6447    5.1805  -93.2301 C   0  0  0  0  0  0  0  0  0  0  0  0
  102.5447    4.0805  -92.9301 C   0  0  0  0  0  0  0  0  0  0  0  0
  102.0447    2.7805  -93.0301 C   0  0  0  0  0  0  0  0  0  0  0  0
  103.7447    4.3805  -92.1301 C   0  0  0  0  0  0  0  0  0  0  0  0
  104.0447    5.5805  -91.8301 N   0  0  0  0  0  0  0  0  0  0  0  0
  104.4446    3.2805  -92.2301 N   0  0  0  0  0  0  0  0  0  0  0  0
   99.6447    7.3805  -91.3301 C   0  0  0  0  0  3  0  0  0  0  0  0
  100.7447    8.0805  -91.1301 N   0  0  0  0  0  0  0  0  0  0  0  0
  101.2447    9.2805  -91.3301 C   0  0  0  0  0  0  0  0  0  0  0  0
  102.9447    1.7805  -93.0301 N   0  0  0  0  0  0  0  0  0  0  0  0
  104.3447    2.2805  -93.0301 C   0  0  0  0  0  0  0  0  0  0  0  0
  102.4446    9.7805  -91.2301 N   0  0  0  0  0  0  0  0  0  0  0  0
  103.6446    9.1805  -91.6301 C   0  0  0  0  0  0  0  0  0  0  0  0
  104.8446    9.8805  -92.0301 C   0  0  0  0  0  0  0  0  0  0  0  0
  100.0447   10.0805  -91.3301 C   0  0  0  0  0  0  0  0  0  0  0  0
   98.7447    9.5805  -91.3301 C   0  0  0  0  0  0  0  0  0  0  0  0
   98.5447    8.2805  -91.1301 N   0  0  0  0  0  0  0  0  0  0  0  0
  100.6447    2.7805  -92.9301 C   0  0  0  0  0  0  0  0  0  0  0  0
  102.8447    0.3805  -93.0301 C   0  0  0  0  0  0  0  0  0  0  0  0
  104.0446    7.8805  -91.1301 C   0  0  0  0  0  0  0  0  0  0  0  0
  104.3447    6.5805  -90.8301 C   0  0  0  0  0  0  0  0  0  0  0  0
  105.2447    1.9805  -93.9301 O   0  0  0  0  0  0  0  0  0  0  0  0
  100.1447   11.2805  -90.6301 F   0  0  0  0  0  0  0  0  0  0  0  0
  2  1  1  0
  3  2  1  0
  4  3  1  0
  5  1  1  0
  5  4  1  0
  6  3  1  0
  7  6  1  0
  8  7  1  0
  9  7  1  0
 10  9  2  0
 11  9  1  0
 12  4  1  0
 13 12  1  0
 14 13  2  0
 15  8  1  0
 16 11  1  0
 16 15  1  0
 17 14  1  0
 18 17  1  0
 19 18  1  0
 20 14  1  0
 21 20  1  0
 22 12  1  0
 22 21  1  0
 23  2  1  0
 23  8  1  0
 24 15  1  0
 25 18  2  0
 26 10  1  0
 26 25  2  0
 27 16  2  0
 28 20  1  0
M  END
>  <ID>  (1) 
conformer_0

$$$$
