
     RDKit          3D

 25 30  0  0  0  0  0  0  0  0999 V2000
  102.2369    2.7016  -93.2077 C   0  0  0  0  0  0  0  0  0  0  0  0
  100.8369    3.1016  -93.3077 C   0  0  0  0  0  0  0  0  0  0  0  0
  100.4369    4.2016  -92.4077 C   0  0  0  0  0  0  0  0  0  0  0  0
   99.1369    4.1016  -91.7077 C   0  0  0  0  0  0  0  0  0  0  0  0
  101.6369    4.6016  -91.6077 N   0  0  0  0  0  0  0  0  0  0  0  0
  102.7369    3.8016  -92.1077 C   0  0  0  0  0  0  0  0  0  0  0  0
  101.6369    6.0016  -91.4077 C   0  0  0  0  0  0  0  0  0  0  0  0
  100.2369    6.5016  -91.5077 C   0  0  0  0  0  0  0  0  0  0  0  0
  100.0369    7.8016  -91.5077 N   0  0  0  0  0  0  0  0  0  0  0  0
   99.1369    8.5016  -90.6077 C   0  0  0  0  0  0  0  0  0  0  0  0
   98.9369    9.8016  -90.9077 C   0  0  0  0  0  0  0  0  0  0  0  0
   98.6369    7.7016  -89.7077 C   0  0  0  0  0  0  0  0  0  0  0  0
   97.8369   10.5016  -90.5077 C   0  0  0  0  0  0  0  0  0  0  0  0
   99.0369    5.7016  -91.2077 C   0  0  0  0  0  0  0  0  0  0  0  0
   97.6369    6.1016  -91.1077 C   0  0  0  0  0  0  0  0  0  0  0  0
   97.4369    6.9016  -89.8077 N   0  0  0  0  0  0  0  0  0  0  0  0
   97.3369    8.3016  -89.4077 C   0  0  0  0  0  0  0  0  0  0  0  0
   96.9369    9.4016  -90.1077 C   0  0  0  0  0  0  0  0  0  0  0  0
  103.8369    3.4016  -91.3077 C   0  0  0  0  0  0  0  0  0  0  0  0
  104.3369    4.6016  -90.7077 O   0  0  0  0  0  0  0  0  0  0  0  0
  104.7369    2.3016  -91.7077 C   0  0  0  0  0  0  0  0  0  0  0  0
  105.7369    1.9016  -90.7077 O   0  0  0  0  0  0  0  0  0  0  0  0
  104.0369    1.2016  -92.4077 C   0  0  0  0  0  0  0  0  0  0  0  0
  102.6369    1.5016  -92.6077 O   0  0  0  0  0  0  0  0  0  0  0  0
  104.9369    0.3016  -92.8077 O   0  0  0  0  0  0  0  0  0  0  0  0
  2  1  1  0
  3  2  1  0
  4  3  1  0
  5  3  1  0
  6  1  1  0
  6  5  1  0
  7  5  1  0
  8  7  1  0
  9  8  1  0
 10  9  1  0
 11 10  1  0
 12 10  2  0
 13 11  2  0
 14  4  1  0
 14  8  1  0
 15 14  1  0
 16 12  1  0
 16 15  1  0
 17 12  1  0
 17 16  1  0
 18 13  1  0
 18 17  2  0
 19  6  1  0
 20 19  1  0
 21 19  1  0
 22 21  1  0
 23 21  1  0
 24  1  1  0
 24 23  1  0
 25 23  2  0
M  END
>  <ID>  (1) 
conformer_0

$$$$
