
     RDKit          3D

 25 27  0  0  0  0  0  0  0  0999 V2000
  102.2611    3.4334  -92.8967 C   0  0  0  0  0  0  0  0  0  0  0  0
  103.0611    2.2334  -92.7967 C   0  0  0  0  0  0  0  0  0  0  0  0
  102.2611    1.0334  -92.5967 O   0  0  0  0  0  0  0  0  0  0  0  0
  100.7611    3.4334  -92.8967 C   0  0  0  0  0  0  0  0  0  0  0  0
  100.2611    4.7334  -92.3967 C   0  0  0  0  0  0  0  0  0  0  0  0
  102.6611    4.5334  -92.0967 O   0  0  0  0  0  0  0  0  0  0  0  0
  101.5611    5.4334  -91.7967 C   0  0  0  0  0  0  0  0  0  0  0  0
  100.1611    2.4334  -93.5967 O   0  0  0  0  0  0  0  0  0  0  0  0
  101.7611    6.7334  -92.0967 N   0  0  0  0  0  0  0  0  0  0  0  0
  101.4611    7.8334  -91.2967 C   0  0  0  0  0  0  0  0  0  0  0  0
  100.1611    7.8334  -90.7967 N   0  0  0  0  0  0  0  0  0  0  0  0
  102.2611    8.8334  -91.4967 C   0  0  0  0  0  0  0  0  0  0  0  0
   99.4611    9.0334  -90.8967 C   0  0  0  0  0  0  0  0  0  0  0  0
  100.3611   10.1334  -91.0967 N   0  0  0  0  0  2  0  0  0  0  0  0
   98.1611    9.3334  -91.0967 N   0  0  0  0  0  0  0  0  0  0  0  0
  103.4611    8.3334  -91.8967 N   0  0  0  0  0  0  0  0  0  0  0  0
  104.8611    8.6334  -91.5967 C   0  0  0  0  0  0  0  0  0  0  0  0
  105.1611    9.9334  -92.0967 C   0  0  0  0  0  0  0  0  0  0  0  0
  106.3611   10.1334  -92.7967 C   0  0  0  0  0  0  0  0  0  0  0  0
  106.8611    8.9334  -92.9967 N   0  0  0  0  0  0  0  0  0  0  0  0
  105.7611    7.6334  -91.3967 C   0  0  0  0  0  0  0  0  0  0  0  0
  106.8611    7.8334  -92.3967 C   0  0  0  0  0  0  0  0  0  0  0  0
   99.2611    5.2334  -92.8967 O   0  0  0  0  0  0  0  0  0  0  0  0
   99.6611   11.2334  -91.1967 N   0  0  0  0  0  0  0  0  0  0  0  0
   98.2611   10.9334  -91.2967 C   0  0  0  0  0  0  0  0  0  0  0  0
  2  1  1  0
  3  2  1  0
  4  1  1  0
  5  4  1  0
  6  1  1  0
  7  5  1  0
  7  6  1  0
  8  4  1  0
  9  7  1  0
 10  9  2  3
 11 10  1  0
 12 10  1  0
 13 11  1  0
 14 13  1  0
 15 13  2  0
 16 12  1  0
 17 16  1  0
 18 17  2  0
 19 18  1  0
 20 19  2  0
 21 17  1  0
 22 20  1  0
 22 21  2  0
 23  5  2  0
 24 14  1  0
 25 15  1  0
 25 24  2  0
M  END
>  <ID>  (1) 
conformer_0

$$$$
