
     RDKit          3D

 12 11  0  0  0  0  0  0  0  0999 V2000
   -1.3949   11.7042  -29.8194 C   0  0  0  0  0  0  0  0  0  0  0  0
   -0.4949   11.3042  -30.9194 C   0  0  0  0  0  0  0  0  0  0  0  0
   -2.3949   10.7042  -29.6194 C   0  0  0  0  0  0  0  0  0  0  0  0
   -1.1949   12.6042  -28.8194 C   0  0  0  0  0  0  0  0  0  0  0  0
   -2.0949   13.7042  -28.5194 C   0  0  0  0  0  0  0  0  0  0  0  0
   -1.7949   15.0042  -28.0194 C   0  0  0  0  0  0  0  0  0  0  0  0
   -1.8949   15.9042  -27.1194 C   0  0  0  0  0  0  0  0  0  0  0  0
   -1.1949   17.2042  -27.2194 C   0  0  0  0  0  0  0  0  0  0  0  0
   -1.4949   18.2042  -26.2194 C   0  0  0  0  0  0  0  0  0  0  0  0
   -2.4949   17.6042  -25.3194 C   0  0  0  0  0  0  0  0  0  0  0  0
   -3.6949   18.4042  -24.9194 C   0  0  0  0  0  0  0  0  0  0  0  0
   -0.8949   19.4042  -25.9194 C   0  0  0  0  0  0  0  0  0  0  0  0
  2  1  1  0
  3  1  1  0
  4  1  1  0
  5  4  1  0
  6  5  1  0
  7  6  2  3
  8  7  1  0
  9  8  1  0
 10  9  1  0
 11 10  1  0
 12  9  2  0
M  END
>  <ID>  (1) 
conformer_0

$$$$
