
     RDKit          3D

  6  5  0  0  0  0  0  0  0  0999 V2000
   -1.3949   11.7042  -29.8194 C   0  0  0  0  0  0  0  0  0  0  0  0
   -0.5949   11.1042  -30.9194 C   0  0  0  0  0  0  0  0  0  0  0  0
   -2.2949   10.8042  -29.1194 C   0  0  0  0  0  0  0  0  0  0  0  0
   -0.7949   12.7042  -28.9194 C   0  0  0  0  0  0  0  0  0  0  0  0
   -1.5949   13.8042  -28.4194 C   0  0  0  0  0  0  0  0  0  0  0  0
   -2.6949   14.4042  -28.9194 C   0  0  0  0  0  0  0  0  0  0  0  0
  2  1  1  0
  3  1  1  0
  4  1  1  0
  5  4  1  0
  6  5  2  0
M  END
>  <ID>  (1) 
conformer_0

$$$$
