
     RDKit          3D

 17 16  0  0  0  0  0  0  0  0999 V2000
   -1.3949   11.7042  -29.8194 C   0  0  0  0  0  0  0  0  0  0  0  0
   -0.4949   11.3042  -30.9194 C   0  0  0  0  0  0  0  0  0  0  0  0
   -2.3949   10.7042  -29.3194 C   0  0  0  0  0  0  0  0  0  0  0  0
   -1.2949   12.8042  -28.8194 C   0  0  0  0  0  0  0  0  0  0  0  0
   -2.1949   13.9042  -28.6194 C   0  0  0  0  0  0  0  0  0  0  0  0
   -1.9949   15.2042  -28.0194 C   0  0  0  0  0  0  0  0  0  0  0  0
   -2.0949   16.0042  -26.9194 C   0  0  0  0  0  0  0  0  0  0  0  0
   -1.2949   17.1042  -26.5194 C   0  0  0  0  0  0  0  0  0  0  0  0
   -1.5949   18.3042  -25.9194 C   0  0  0  0  0  0  0  0  0  0  0  0
   -0.6949   19.4042  -26.1194 C   0  0  0  0  0  0  0  0  0  0  0  0
    0.0051   19.3042  -27.4194 C   0  0  0  0  0  0  0  0  0  0  0  0
    0.3051   18.1042  -28.1194 C   0  0  0  0  0  0  0  0  0  0  0  0
    1.4051   18.1042  -29.1194 C   0  0  0  0  0  0  0  0  0  0  0  0
    2.0051   16.8042  -29.4194 C   0  0  0  0  0  0  0  0  0  0  0  0
    1.3051   19.2042  -30.1194 C   0  0  0  0  0  0  0  0  0  0  0  0
   -2.4949   18.3042  -24.7194 C   0  0  0  0  0  0  0  0  0  0  0  0
   -1.8949   19.2042  -23.7194 C   0  0  0  0  0  0  0  0  0  0  0  0
  2  1  1  0
  3  1  1  0
  4  1  1  0
  5  4  1  0
  6  5  1  0
  7  6  1  0
  8  7  1  0
  9  8  1  0
 10  9  1  0
 11 10  1  0
 12 11  1  0
 13 12  1  0
 14 13  1  0
 15 13  1  0
 16  9  1  0
 17 16  1  0
M  END
>  <ID>  (1) 
conformer_0

$$$$
