
     RDKit          3D

 24 28  0  0  0  0  0  0  0  0999 V2000
   -1.3949   11.7042  -29.8194 C   0  0  0  0  0  0  0  0  0  0  0  0
   -0.5949   11.1042  -30.9194 C   0  0  0  0  0  0  0  0  0  0  0  0
   -1.8949   10.7042  -28.8194 C   0  0  0  0  0  0  0  0  0  0  0  0
   -1.5949    9.4042  -29.2194 C   0  0  0  0  0  0  0  0  0  0  0  0
   -2.2949   11.1042  -27.5194 C   0  0  0  0  0  0  0  0  0  0  0  0
   -0.7949   12.7042  -28.9194 C   0  0  0  0  0  0  0  0  0  0  0  0
   -1.9949   13.5042  -28.5194 C   0  0  0  0  0  0  0  0  0  0  0  0
   -3.0949   10.2042  -26.7194 C   0  0  0  0  0  0  0  0  0  0  0  0
   -2.8949    8.8042  -27.2194 C   0  0  0  0  0  0  0  0  0  0  0  0
   -2.8949    9.7042  -29.4194 C   0  0  0  0  0  0  0  0  0  0  0  0
   -1.9949   14.9042  -28.1194 C   0  0  0  0  0  0  0  0  0  0  0  0
   -2.3949   15.6042  -27.0194 C   0  0  0  0  0  0  0  0  0  0  0  0
   -1.7949   16.7042  -26.3194 C   0  0  0  0  0  0  0  0  0  0  0  0
   -0.9949   17.6042  -27.0194 C   0  0  0  0  0  0  0  0  0  0  0  0
   -0.5949   17.0042  -28.3194 C   0  0  0  0  0  0  0  0  0  0  0  0
   -0.4949   18.9042  -26.7194 C   0  0  0  0  0  0  0  0  0  0  0  0
    0.4051   19.5042  -27.7194 C   0  0  0  0  0  0  0  0  0  0  0  0
    1.0051   18.8042  -28.8194 C   0  0  0  0  0  0  0  0  0  0  0  0
    0.8051   17.3042  -28.7194 C   0  0  0  0  0  0  0  0  0  0  0  0
   -1.9949   11.3042  -31.1194 C   0  0  0  0  0  0  0  0  0  0  0  0
    1.1051   19.4042  -30.0194 O   0  0  0  0  0  0  0  0  0  0  0  0
    2.1051   18.8042  -30.9194 C   0  0  0  0  0  0  0  0  0  0  0  0
   -0.9949   15.8042  -28.8194 O   0  0  0  0  0  0  0  0  0  0  0  0
   -3.6949    8.8042  -28.4194 C   0  0  0  0  0  0  0  0  0  0  0  0
  2  1  1  0
  3  1  1  0
  4  3  1  0
  5  3  1  0
  6  1  1  0
  7  6  1  0
  8  5  1  0
  9  8  1  0
 10  3  1  0
 10  4  1  0
 11  7  1  0
 12 11  1  0
 13 12  2  0
 14 13  1  0
 15 14  2  0
 16 14  1  0
 17 16  2  0
 18 17  1  0
 19 15  1  0
 19 18  1  0
 20  1  1  0
 20  2  1  0
 21 18  1  0
 22 21  1  0
 23 11  1  0
 23 15  1  0
 24  9  1  0
 24 10  1  0
M  END
>  <ID>  (1) 
conformer_0

$$$$
