
     RDKit          3D

 21 22  0  0  0  0  0  0  0  0999 V2000
   -3.8714   17.9133  -24.5529 C   0  0  0  0  0  0  0  0  0  0  0  0
   -3.1714   17.2133  -25.6529 C   0  0  0  0  0  0  0  0  0  0  0  0
   -1.7714   17.6133  -25.9529 C   0  0  0  0  0  0  0  0  0  0  0  0
   -1.5714   18.9133  -25.2529 C   0  0  0  0  0  0  0  0  0  0  0  0
   -1.7714   19.1133  -23.8529 C   0  0  0  0  0  0  0  0  0  0  0  0
   -0.9714   17.3133  -27.1529 C   0  0  0  0  0  0  0  0  0  0  0  0
   -0.4714   19.7133  -25.8529 C   0  0  0  0  0  0  0  0  0  0  0  0
    0.0286   19.4133  -27.1529 C   0  0  0  0  0  0  0  0  0  0  0  0
   -0.1714   18.3133  -27.8529 C   0  0  0  0  0  0  0  0  0  0  0  0
    0.8286   17.7133  -28.7529 C   0  0  0  0  0  0  0  0  0  0  0  0
   -2.7714   18.1133  -23.3529 C   0  0  0  0  0  0  0  0  0  0  0  0
    1.4286   18.6133  -29.7529 C   0  0  0  0  0  0  0  0  0  0  0  0
    2.3286   18.0133  -30.7529 C   0  0  0  0  0  0  0  0  0  0  0  0
   -1.3714   16.1133  -27.8529 O   0  0  0  0  0  0  0  0  0  0  0  0
   -2.4714   15.4133  -27.4529 C   0  0  0  0  0  0  0  0  0  0  0  0
   -2.4714   14.3133  -28.4529 C   0  0  0  0  0  0  0  0  0  0  0  0
   -1.6714   13.2133  -28.5529 C   0  0  0  0  0  0  0  0  0  0  0  0
   -1.7714   12.1133  -29.5529 C   0  0  0  0  0  0  0  0  0  0  0  0
   -0.8714   11.2133  -29.8529 C   0  0  0  0  0  0  0  0  0  0  0  0
   -0.4714   11.0133  -31.2529 C   0  0  0  0  0  0  0  0  0  0  0  0
   -1.1714    9.8133  -29.4529 C   0  0  0  0  0  0  0  0  0  0  0  0
  2  1  1  0
  3  2  1  0
  4  3  2  0
  5  4  1  0
  6  3  1  0
  7  4  1  0
  8  7  2  0
  9  6  2  0
  9  8  1  0
 10  9  1  0
 11  1  1  0
 11  5  1  0
 12 10  2  3
 13 12  1  0
 14  6  1  0
 15 14  1  0
 16 15  1  0
 17 16  1  0
 18 17  2  3
 19 18  1  0
 20 19  1  0
 21 19  1  0
M  END
>  <ID>  (1) 
conformer_0

$$$$
