
     RDKit          3D

 16 18  0  0  0  0  0  0  0  0999 V2000
   -3.8714   17.9133  -24.5529 C   0  0  0  0  0  0  0  0  0  0  0  0
   -2.8714   17.3133  -25.4529 C   0  0  0  0  0  0  0  0  0  0  0  0
   -1.6714   18.1133  -25.7529 C   0  0  0  0  0  0  0  0  0  0  0  0
   -1.5714   19.2133  -24.7529 C   0  0  0  0  0  0  0  0  0  0  0  0
   -0.8714   18.0133  -26.9529 C   0  0  0  0  0  0  0  0  0  0  0  0
   -0.3714   19.0133  -27.7529 C   0  0  0  0  0  0  0  0  0  0  0  0
    0.7286   18.6133  -28.6529 C   0  0  0  0  0  0  0  0  0  0  0  0
    0.9286   17.2133  -28.5529 C   0  0  0  0  0  0  0  0  0  0  0  0
    2.1286   16.6133  -29.1529 C   0  0  0  0  0  0  0  0  0  0  0  0
    1.2286   19.4133  -29.7529 C   0  0  0  0  0  0  0  0  0  0  0  0
    2.7286   17.5133  -30.1529 C   0  0  0  0  0  0  0  0  0  0  0  0
    2.0286   18.6133  -30.7529 C   0  0  0  0  0  0  0  0  0  0  0  0
   -0.3714   16.5133  -28.7529 C   0  0  0  0  0  0  0  0  0  0  0  0
   -1.1714   16.6133  -27.5529 C   0  0  0  0  0  0  0  0  0  0  0  0
   -0.5714   20.4133  -27.3529 C   0  0  0  0  0  0  0  0  0  0  0  0
   -3.0714   19.1133  -24.1529 C   0  0  0  0  0  0  0  0  0  0  0  0
  2  1  1  0
  3  2  1  0
  4  3  1  0
  5  3  1  0
  6  5  1  0
  7  6  1  0
  8  7  1  0
  9  8  1  0
 10  7  1  0
 11  9  1  0
 12 10  1  0
 12 11  1  0
 13  8  1  0
 14  5  1  0
 14 13  1  0
 15  6  1  0
 16  1  1  0
 16  4  1  0
M  END
>  <ID>  (1) 
conformer_0

$$$$
