
     RDKit          3D

 10  9  0  0  0  0  0  0  0  0999 V2000
   -1.4703   18.0367  -25.8949 C   0  0  0  0  0  0  0  0  0  0  0  0
   -1.3703   18.7367  -24.5949 C   0  0  0  0  0  0  0  0  0  0  0  0
   -2.5703   18.3367  -23.7949 C   0  0  0  0  0  0  0  0  0  0  0  0
   -3.6703   18.0367  -24.6949 C   0  0  0  0  0  0  0  0  0  0  0  0
   -0.6703   18.6367  -26.9949 C   0  0  0  0  0  0  0  0  0  0  0  0
   -0.0703   17.6367  -27.8949 C   0  0  0  0  0  0  0  0  0  0  0  0
    1.1297   18.1367  -28.5949 C   0  0  0  0  0  0  0  0  0  0  0  0
    1.7297   17.2367  -29.4949 C   0  0  0  0  0  0  0  0  0  0  0  0
    2.9297   17.2367  -30.1949 C   0  0  0  0  0  0  0  0  0  0  0  0
    1.3297   15.8367  -29.1949 C   0  0  0  0  0  0  0  0  0  0  0  0
  2  1  1  0
  3  2  1  0
  4  3  1  0
  5  1  1  0
  6  5  1  0
  7  6  1  0
  8  7  1  0
  9  8  1  0
 10  8  1  0
M  END
>  <ID>  (1) 
conformer_0

$$$$
