
     RDKit          3D

 13 15  0  0  0  0  0  0  0  0999 V2000
   -3.8320   18.1046  -24.5735 C   0  0  0  0  0  0  0  0  0  0  0  0
   -2.8320   17.5046  -25.4735 C   0  0  0  0  0  0  0  0  0  0  0  0
   -1.6320   18.1046  -25.8735 C   0  0  0  0  0  0  0  0  0  0  0  0
   -1.4320   19.2046  -24.8735 C   0  0  0  0  0  0  0  0  0  0  0  0
   -1.7320   18.8046  -23.4735 C   0  0  0  0  0  0  0  0  0  0  0  0
   -0.8320   18.0046  -27.0735 C   0  0  0  0  0  0  0  0  0  0  0  0
    0.1680   18.9046  -27.6735 C   0  0  0  0  0  0  0  0  0  0  0  0
    1.3680   18.3046  -28.2735 C   0  0  0  0  0  0  0  0  0  0  0  0
    1.6680   18.2046  -29.6735 C   0  0  0  0  0  0  0  0  0  0  0  0
    2.4680   17.0046  -30.0735 C   0  0  0  0  0  0  0  0  0  0  0  0
   -2.8320   19.4046  -24.0735 C   0  0  0  0  0  0  0  0  0  0  0  0
    2.8680   16.3046  -31.0735 C   0  0  0  0  0  0  0  0  0  0  0  0
    2.8680   17.6046  -31.6735 C   0  0  0  0  0  0  0  0  0  0  0  0
  2  1  1  0
  3  2  1  0
  4  3  1  0
  5  4  1  0
  6  3  1  0
  7  6  1  0
  8  7  1  0
  9  8  1  0
 10  9  1  0
 11  1  1  0
 11  4  1  0
 11  5  1  0
 12 10  1  0
 13 10  1  0
 13 12  1  0
M  END
>  <ID>  (1) 
conformer_0

$$$$
