
     RDKit          3D

 11 10  0  0  0  0  0  0  0  0999 V2000
   -1.3949   11.7042  -29.8194 C   0  0  0  0  0  0  0  0  0  0  0  0
   -0.4949   11.3042  -30.9194 C   0  0  0  0  0  0  0  0  0  0  0  0
   -2.2949   10.6042  -29.5194 C   0  0  0  0  0  0  0  0  0  0  0  0
   -1.0949   12.7042  -28.9194 C   0  0  0  0  0  0  0  0  0  0  0  0
   -2.0949   13.6042  -28.5194 C   0  0  0  0  0  0  0  0  0  0  0  0
   -1.9949   15.0042  -28.1194 C   0  0  0  0  0  0  0  0  0  0  0  0
   -2.2949   15.8042  -27.0194 C   0  0  0  0  0  0  0  0  0  0  0  0
   -1.4949   17.0042  -26.7194 C   0  0  0  0  0  0  0  0  0  0  0  0
   -1.7949   17.6042  -25.4194 C   0  0  0  0  0  0  0  0  0  0  0  0
   -1.3949   19.0042  -25.2194 C   0  0  0  0  0  0  0  0  0  0  0  0
   -0.6949   19.5042  -26.4194 C   0  0  0  0  0  0  0  0  0  0  0  0
  2  1  1  0
  3  1  1  0
  4  1  1  0
  5  4  1  0
  6  5  1  0
  7  6  1  0
  8  7  1  0
  9  8  1  0
 10  9  1  0
 11 10  1  0
M  END
>  <ID>  (1) 
conformer_0

$$$$
