
     RDKit          3D

 25 30  0  0  0  0  0  0  0  0999 V2000
   -1.4703   18.0367  -25.8949 C   0  0  0  0  0  0  0  0  0  0  0  0
   -1.3703   18.7367  -24.5949 C   0  0  0  0  0  0  0  0  0  0  0  0
   -2.5703   18.3367  -23.7949 C   0  0  0  0  0  0  0  0  0  0  0  0
   -3.6703   18.0367  -24.6949 C   0  0  0  0  0  0  0  0  0  0  0  0
   -2.0703   16.7367  -26.0949 C   0  0  0  0  0  0  0  0  0  0  0  0
   -0.6703   18.5367  -26.9949 C   0  0  0  0  0  0  0  0  0  0  0  0
   -0.3703   17.5367  -27.9949 C   0  0  0  0  0  0  0  0  0  0  0  0
    0.9297   17.5367  -28.5949 C   0  0  0  0  0  0  0  0  0  0  0  0
    1.7297   16.5367  -29.0949 C   0  0  0  0  0  0  0  0  0  0  0  0
    1.1297   18.8367  -29.2949 C   0  0  0  0  0  0  0  0  0  0  0  0
    1.8297   18.7367  -30.5949 C   0  0  0  0  0  0  0  0  0  0  0  0
    2.8297   16.7367  -29.8949 C   0  0  0  0  0  0  0  0  0  0  0  0
    0.4297   19.9367  -28.6949 C   0  0  0  0  0  0  0  0  0  0  0  0
   -0.3703   19.8367  -27.4949 C   0  0  0  0  0  0  0  0  0  0  0  0
    3.0297   17.9367  -30.5949 C   0  0  0  0  0  0  0  0  0  0  0  0
   -0.9703   16.2367  -28.1949 C   0  0  0  0  0  0  0  0  0  0  0  0
   -1.9703   15.8367  -27.1949 C   0  0  0  0  0  0  0  0  0  0  0  0
   -2.3703   17.8367  -22.4949 C   0  0  0  0  0  0  0  0  0  0  0  0
   -0.9703   17.9367  -22.0949 C   0  0  0  0  0  0  0  0  0  0  0  0
   -0.1703   19.2367  -23.9949 C   0  0  0  0  0  0  0  0  0  0  0  0
   -0.6703   20.1367  -24.9949 C   0  0  0  0  0  0  0  0  0  0  0  0
   -0.7703   16.9367  -20.9949 C   0  0  0  0  0  0  0  0  0  0  0  0
   -3.0703   14.9367  -27.5949 O   0  0  0  0  0  0  0  0  0  0  0  0
   -0.0703   18.7367  -22.6949 O   0  0  0  0  0  0  0  0  0  0  0  0
   -3.4703   16.8367  -25.5949 O   0  0  0  0  0  0  0  0  0  0  0  0
  2  1  1  0
  3  2  1  0
  4  3  1  0
  5  1  2  0
  6  1  1  0
  7  6  2  0
  8  7  1  0
  9  8  1  0
 10  8  2  0
 11 10  1  0
 12  9  1  0
 13 10  1  0
 14  6  1  0
 14 13  2  0
 15 11  1  0
 15 12  1  0
 16  7  1  0
 17  5  1  0
 17 16  2  0
 18  3  1  0
 19 18  1  0
 20  2  1  0
 21  2  1  0
 21 20  1  0
 22 19  1  0
 23 17  1  0
 24 19  1  0
 24 20  1  0
 25  4  1  0
 25  5  1  0
M  END
>  <ID>  (1) 
conformer_0

$$$$
