
     RDKit          3D

 24 28  0  0  0  0  0  0  0  0999 V2000
   -1.3949   11.7042  -29.8194 C   0  0  0  0  0  0  0  0  0  0  0  0
   -0.5949   11.1042  -30.9194 C   0  0  0  0  0  0  0  0  0  0  0  0
   -1.8949   10.7042  -28.8194 C   0  0  0  0  0  0  0  0  0  0  0  0
   -1.3949    9.4042  -29.2194 C   0  0  0  0  0  0  0  0  0  0  0  0
   -2.7949   11.0042  -27.7194 C   0  0  0  0  0  0  0  0  0  0  0  0
   -1.9949   13.0042  -29.4194 C   0  0  0  0  0  0  0  0  0  0  0  0
   -3.2949    9.9042  -26.9194 C   0  0  0  0  0  0  0  0  0  0  0  0
   -2.7949    8.6042  -27.3194 C   0  0  0  0  0  0  0  0  0  0  0  0
   -2.7949    9.7042  -29.6194 C   0  0  0  0  0  0  0  0  0  0  0  0
   -1.8949   11.4042  -31.2194 C   0  0  0  0  0  0  0  0  0  0  0  0
   -1.9949   13.4042  -28.0194 C   0  0  0  0  0  0  0  0  0  0  0  0
   -2.2949   14.8042  -27.8194 C   0  0  0  0  0  0  0  0  0  0  0  0
   -1.8949   15.9042  -27.1194 C   0  0  0  0  0  0  0  0  0  0  0  0
   -2.3949   16.7042  -26.0194 C   0  0  0  0  0  0  0  0  0  0  0  0
   -1.5949   17.9042  -25.6194 C   0  0  0  0  0  0  0  0  0  0  0  0
   -0.9949   18.3042  -26.9194 C   0  0  0  0  0  0  0  0  0  0  0  0
   -2.1949   19.0042  -24.8194 C   0  0  0  0  0  0  0  0  0  0  0  0
   -0.5949   19.7042  -26.8194 C   0  0  0  0  0  0  0  0  0  0  0  0
   -0.0949   17.5042  -27.7194 C   0  0  0  0  0  0  0  0  0  0  0  0
    1.1051   18.2042  -28.2194 C   0  0  0  0  0  0  0  0  0  0  0  0
    1.4051   18.4042  -29.6194 C   0  0  0  0  0  0  0  0  0  0  0  0
    2.5051   17.7042  -30.3194 C   0  0  0  0  0  0  0  0  0  0  0  0
   -0.8949   18.7042  -24.4194 C   0  0  0  0  0  0  0  0  0  0  0  0
   -3.6949    9.0042  -28.4194 C   0  0  0  0  0  0  0  0  0  0  0  0
  2  1  1  0
  3  1  1  0
  4  3  1  0
  5  3  1  0
  6  1  1  0
  7  5  1  0
  8  7  1  0
  9  3  1  0
  9  4  1  0
 10  1  1  0
 10  2  1  0
 11  6  1  0
 12 11  1  0
 13 12  1  0
 14 13  2  3
 15 14  1  0
 16 15  1  0
 17 15  1  0
 18 16  1  0
 19 16  1  0
 20 19  1  0
 21 20  1  0
 22 21  1  0
 23 15  1  0
 23 17  1  0
 24  7  1  0
 24  8  1  0
 24  9  1  0
M  END
>  <ID>  (1) 
conformer_0

$$$$
