
     RDKit          3D

 10  9  0  0  0  0  0  0  0  0999 V2000
   -1.4703   18.0367  -25.8949 C   0  0  0  0  0  0  0  0  0  0  0  0
   -1.3703   18.7367  -24.5949 C   0  0  0  0  0  0  0  0  0  0  0  0
   -2.5703   18.3367  -23.7949 C   0  0  0  0  0  0  0  0  0  0  0  0
   -3.6703   18.0367  -24.6949 C   0  0  0  0  0  0  0  0  0  0  0  0
   -0.7703   18.7367  -26.9949 C   0  0  0  0  0  0  0  0  0  0  0  0
    0.2297   18.2367  -27.8949 C   0  0  0  0  0  0  0  0  0  0  0  0
    0.7297   19.0367  -28.9949 C   0  0  0  0  0  0  0  0  0  0  0  0
    1.5297   18.5367  -29.9949 C   0  0  0  0  0  0  0  0  0  0  0  0
    2.1297   17.2367  -29.8949 C   0  0  0  0  0  0  0  0  0  0  0  0
    2.9297   16.6367  -30.7949 C   0  0  0  0  0  0  0  0  0  0  0  0
  2  1  1  0
  3  2  1  0
  4  3  1  0
  5  1  1  0
  6  5  2  3
  7  6  1  0
  8  7  2  3
  9  8  1  0
 10  9  2  0
M  END
>  <ID>  (1) 
conformer_0

$$$$
