
     RDKit          3D

  3  3  0  0  0  0  0  0  0  0999 V2000
   -0.6484   17.6323  -22.0652 C   0  0  0  0  0  0  0  0  0  0  0  0
   -1.8484   18.0323  -21.5652 C   0  0  0  0  0  0  0  0  0  0  0  0
   -1.2484   16.8323  -20.9652 C   0  0  0  0  0  0  0  0  0  0  0  0
  2  1  1  0
  3  1  1  0
  3  2  1  0
M  END
>  <ID>  (1) 
conformer_0

$$$$
