
     RDKit          3D

 18 21  0  0  0  0  0  0  0  0999 V2000
   -3.8714   17.9133  -24.5529 C   0  0  0  0  0  0  0  0  0  0  0  0
   -3.1714   17.2133  -25.6529 C   0  0  0  0  0  0  0  0  0  0  0  0
   -1.9714   17.9133  -26.1529 C   0  0  0  0  0  0  0  0  0  0  0  0
   -1.5714   19.0133  -25.2529 C   0  0  0  0  0  0  0  0  0  0  0  0
   -1.4714   18.5133  -23.8529 C   0  0  0  0  0  0  0  0  0  0  0  0
   -0.9714   17.4133  -27.0529 C   0  0  0  0  0  0  0  0  0  0  0  0
   -0.4714   19.8133  -25.8529 C   0  0  0  0  0  0  0  0  0  0  0  0
   -0.0714   19.6133  -27.2529 C   0  0  0  0  0  0  0  0  0  0  0  0
   -0.1714   18.3133  -27.8529 C   0  0  0  0  0  0  0  0  0  0  0  0
    1.0286   17.8133  -28.5529 C   0  0  0  0  0  0  0  0  0  0  0  0
    1.2286   18.6133  -29.7529 C   0  0  0  0  0  0  0  0  0  0  0  0
    1.1286   16.4133  -28.7529 C   0  0  0  0  0  0  0  0  0  0  0  0
   -2.6714   17.9133  -23.3529 C   0  0  0  0  0  0  0  0  0  0  0  0
    1.7286   17.7133  -30.7529 N   0  0  0  0  0  0  0  0  0  0  0  0
    2.7286   16.8133  -30.5529 C   0  0  0  0  0  0  0  0  0  0  0  0
    2.4286   16.3133  -29.3529 N   0  0  0  0  0  0  0  0  0  0  0  0
   -0.7714   16.2133  -27.6529 N   0  0  0  0  0  0  0  0  0  0  0  0
    0.2286   15.6133  -28.2529 C   0  0  0  0  0  0  0  0  0  0  0  0
  2  1  1  0
  3  2  1  0
  4  3  1  0
  5  4  1  0
  6  3  1  0
  7  4  1  0
  8  7  1  0
  9  6  2  0
  9  8  1  0
 10  9  1  0
 11 10  1  0
 12 10  2  0
 13  1  1  0
 13  5  1  0
 14 11  1  0
 15 14  1  0
 16 12  1  0
 16 15  1  0
 17  6  1  0
 18 12  1  0
 18 17  2  0
M  END
>  <ID>  (1) 
conformer_0

$$$$
