
     RDKit          3D

 24 28  0  0  0  0  0  0  0  0999 V2000
   -1.4703   18.0367  -25.8949 C   0  0  0  0  0  0  0  0  0  0  0  0
   -1.3703   18.7367  -24.5949 C   0  0  0  0  0  0  0  0  0  0  0  0
   -2.5703   18.3367  -23.7949 C   0  0  0  0  0  0  0  0  0  0  0  0
   -3.6703   18.0367  -24.6949 C   0  0  0  0  0  0  0  0  0  0  0  0
   -2.0703   16.7367  -26.0949 C   0  0  0  0  0  0  0  0  0  0  0  0
   -0.6703   18.5367  -26.9949 C   0  0  0  0  0  0  0  0  0  0  0  0
   -0.2703   17.5367  -27.9949 C   0  0  0  0  0  0  0  0  0  0  0  0
    0.9297   17.7367  -28.6949 C   0  0  0  0  0  0  0  0  0  0  0  0
    1.7297   16.6367  -29.1949 C   0  0  0  0  0  0  0  0  0  0  0  0
    2.6297   16.8367  -30.2949 C   0  0  0  0  0  0  0  0  0  0  0  0
   -2.1703   18.0367  -22.4949 C   0  0  0  0  0  0  0  0  0  0  0  0
   -0.7703   17.8367  -22.1949 C   0  0  0  0  0  0  0  0  0  0  0  0
   -1.9703   15.8367  -27.1949 C   0  0  0  0  0  0  0  0  0  0  0  0
   -0.9703   16.2367  -28.1949 C   0  0  0  0  0  0  0  0  0  0  0  0
    1.0297   18.8367  -29.6949 C   0  0  0  0  0  0  0  0  0  0  0  0
   -0.2703   19.5367  -24.0949 C   0  0  0  0  0  0  0  0  0  0  0  0
    2.2297   17.7367  -31.2949 O   0  0  0  0  0  0  0  0  0  0  0  0
    1.9297   18.8367  -30.6949 C   0  0  0  0  0  0  0  0  0  0  0  0
   -1.0703   20.1367  -24.9949 C   0  0  0  0  0  0  0  0  0  0  0  0
   -0.1703   19.7367  -27.6949 C   0  0  0  0  0  0  0  0  0  0  0  0
   -0.7703   16.9367  -20.9949 C   0  0  0  0  0  0  0  0  0  0  0  0
   -1.2703   19.0367  -21.9949 O   0  0  0  0  0  0  0  0  0  0  0  0
   -2.8703   14.9367  -27.5949 O   0  0  0  0  0  0  0  0  0  0  0  0
   -3.3703   16.7367  -25.3949 O   0  0  0  0  0  0  0  0  0  0  0  0
  2  1  1  0
  3  2  1  0
  4  3  1  0
  5  1  2  0
  6  1  1  0
  7  6  2  0
  8  7  1  0
  9  8  1  0
 10  9  1  0
 11  3  1  0
 12 11  1  0
 13  5  1  0
 14  7  1  0
 14 13  2  0
 15  8  1  0
 16  2  1  0
 17 10  1  0
 18 15  1  0
 18 17  1  0
 19  2  1  0
 19 16  1  0
 20  6  1  0
 21 12  1  0
 22 11  1  0
 22 12  1  0
 23 13  1  0
 24  4  1  0
 24  5  1  0
M  END
>  <ID>  (1) 
conformer_0

$$$$
