
     RDKit          3D

 10  9  0  0  0  0  0  0  0  0999 V2000
   -1.4703   18.0367  -25.8949 C   0  0  0  0  0  0  0  0  0  0  0  0
   -0.8703   18.3367  -27.1949 C   0  0  0  0  0  0  0  0  0  0  0  0
   -1.4703   18.8367  -24.7949 C   0  0  0  0  0  0  0  0  0  0  0  0
   -0.9703   18.4367  -23.4949 C   0  0  0  0  0  0  0  0  0  0  0  0
   -0.4703   17.2367  -28.0949 C   0  0  0  0  0  0  0  0  0  0  0  0
    0.8297   17.4367  -28.7949 C   0  0  0  0  0  0  0  0  0  0  0  0
    1.1297   18.7367  -29.3949 C   0  0  0  0  0  0  0  0  0  0  0  0
    1.9297   18.7367  -30.5949 C   0  0  0  0  0  0  0  0  0  0  0  0
   -1.6703   18.1367  -22.2949 C   0  0  0  0  0  0  0  0  0  0  0  0
   -1.1703   17.4367  -21.1949 C   0  0  0  0  0  0  0  0  0  0  0  0
  2  1  1  0
  3  1  1  0
  4  3  1  0
  5  2  1  0
  6  5  1  0
  7  6  1  0
  8  7  1  0
  9  4  2  3
 10  9  1  0
M  END
>  <ID>  (1) 
conformer_0

$$$$
