
     RDKit          3D

 20 21  0  0  0  0  0  0  0  0999 V2000
   -3.8714   17.9133  -24.5529 C   0  0  0  0  0  0  0  0  0  0  0  0
   -3.1714   17.2133  -25.6529 C   0  0  0  0  0  0  0  0  0  0  0  0
   -1.7714   17.6133  -25.9529 C   0  0  0  0  0  0  0  0  0  0  0  0
   -1.5714   18.9133  -25.2529 C   0  0  0  0  0  0  0  0  0  0  0  0
   -1.7714   19.1133  -23.8529 C   0  0  0  0  0  0  0  0  0  0  0  0
   -0.9714   17.3133  -27.1529 C   0  0  0  0  0  0  0  0  0  0  0  0
   -0.4714   19.7133  -25.8529 C   0  0  0  0  0  0  0  0  0  0  0  0
    0.0286   19.4133  -27.1529 C   0  0  0  0  0  0  0  0  0  0  0  0
   -0.1714   18.3133  -27.8529 C   0  0  0  0  0  0  0  0  0  0  0  0
    0.7286   17.8133  -28.8529 C   0  0  0  0  0  0  0  0  0  0  0  0
   -2.8714   18.1133  -23.4529 C   0  0  0  0  0  0  0  0  0  0  0  0
    1.1286   18.8133  -29.8529 C   0  0  0  0  0  0  0  0  0  0  0  0
    2.2286   18.6133  -30.7529 C   0  0  0  0  0  0  0  0  0  0  0  0
   -1.2714   16.2133  -28.0529 O   0  0  0  0  0  0  0  0  0  0  0  0
   -2.3714   15.3133  -27.7529 C   0  0  0  0  0  0  0  0  0  0  0  0
   -2.1714   14.1133  -28.5529 C   0  0  0  0  0  0  0  0  0  0  0  0
   -2.1714   12.7133  -28.3529 C   0  0  0  0  0  0  0  0  0  0  0  0
   -1.9714   11.7133  -29.4529 C   0  0  0  0  0  0  0  0  0  0  0  0
   -0.6714   11.6133  -30.0529 C   0  0  0  0  0  0  0  0  0  0  0  0
   -0.4714   11.2133  -31.4529 C   0  0  0  0  0  0  0  0  0  0  0  0
  2  1  1  0
  3  2  1  0
  4  3  2  0
  5  4  1  0
  6  3  1  0
  7  4  1  0
  8  7  2  0
  9  6  2  0
  9  8  1  0
 10  9  1  0
 11  1  1  0
 11  5  1  0
 12 10  1  0
 13 12  1  0
 14  6  1  0
 15 14  1  0
 16 15  1  0
 17 16  2  3
 18 17  1  0
 19 18  1  0
 20 19  1  0
M  END
>  <ID>  (1) 
conformer_0

$$$$
