
     RDKit          3D

 26 29  0  0  0  0  0  0  0  0999 V2000
   -1.3949   11.7042  -29.8194 C   0  0  0  0  0  0  0  0  0  0  0  0
   -0.5949   11.1042  -30.9194 C   0  0  0  0  0  0  0  0  0  0  0  0
   -1.8949   10.7042  -28.8194 C   0  0  0  0  0  0  0  0  0  0  0  0
   -1.4949    9.4042  -29.2194 C   0  0  0  0  0  0  0  0  0  0  0  0
   -2.7949   11.1042  -27.8194 C   0  0  0  0  0  0  0  0  0  0  0  0
   -1.8949   13.0042  -29.4194 C   0  0  0  0  0  0  0  0  0  0  0  0
   -3.1949   10.1042  -26.8194 C   0  0  0  0  0  0  0  0  0  0  0  0
   -2.9949    8.7042  -27.3194 C   0  0  0  0  0  0  0  0  0  0  0  0
   -2.8949    9.6042  -29.6194 C   0  0  0  0  0  0  0  0  0  0  0  0
    0.2051   11.7042  -29.8194 C   0  0  0  0  0  0  0  0  0  0  0  0
   -1.3949   13.6042  -28.2194 C   0  0  0  0  0  0  0  0  0  0  0  0
   -2.0949   14.9042  -28.0194 C   0  0  0  0  0  0  0  0  0  0  0  0
   -1.7949   15.9042  -27.0194 C   0  0  0  0  0  0  0  0  0  0  0  0
   -2.6949   16.6042  -26.1194 C   0  0  0  0  0  0  0  0  0  0  0  0
   -2.2949   17.8042  -25.3194 C   0  0  0  0  0  0  0  0  0  0  0  0
   -1.4949   18.8042  -26.0194 C   0  0  0  0  0  0  0  0  0  0  0  0
   -0.6949   18.1042  -27.0194 C   0  0  0  0  0  0  0  0  0  0  0  0
   -3.3949   18.2042  -24.4194 C   0  0  0  0  0  0  0  0  0  0  0  0
    0.2051   18.9042  -27.8194 C   0  0  0  0  0  0  0  0  0  0  0  0
    0.8051   18.2042  -28.9194 C   0  0  0  0  0  0  0  0  0  0  0  0
    1.5051   18.7042  -30.0194 C   0  0  0  0  0  0  0  0  0  0  0  0
    2.5051   17.9042  -30.7194 C   0  0  0  0  0  0  0  0  0  0  0  0
    1.3051   16.9042  -28.7194 C   0  0  0  0  0  0  0  0  0  0  0  0
    2.4051   16.1042  -29.1194 C   0  0  0  0  0  0  0  0  0  0  0  0
    2.8051   16.6042  -30.6194 C   0  0  0  0  0  0  0  0  0  0  0  0
   -3.6949    8.7042  -28.6194 C   0  0  0  0  0  0  0  0  0  0  0  0
  2  1  1  0
  3  1  1  0
  4  3  1  0
  5  3  1  0
  6  1  1  0
  7  5  1  0
  8  7  1  0
  9  3  1  0
  9  4  1  0
 10  1  1  0
 10  2  1  0
 11  6  1  0
 12 11  1  0
 13 12  1  0
 14 13  2  3
 15 14  1  0
 16 15  1  0
 17 16  1  0
 18 15  1  0
 19 17  1  0
 20 19  1  0
 21 20  1  0
 22 21  2  0
 23 20  1  0
 24 23  1  0
 25 22  1  0
 25 24  1  0
 26  8  1  0
 26  9  1  0
M  END
>  <ID>  (1) 
conformer_0

$$$$
