
     RDKit          3D

 15 16  0  0  0  0  0  0  0  0999 V2000
   -3.8714   17.9133  -24.5529 C   0  0  0  0  0  0  0  0  0  0  0  0
   -3.1714   17.2133  -25.6529 C   0  0  0  0  0  0  0  0  0  0  0  0
   -1.9714   17.9133  -26.1529 C   0  0  0  0  0  0  0  0  0  0  0  0
   -1.5714   19.0133  -25.2529 C   0  0  0  0  0  0  0  0  0  0  0  0
   -1.7714   18.9133  -23.8529 C   0  0  0  0  0  0  0  0  0  0  0  0
   -0.9714   17.3133  -27.0529 C   0  0  0  0  0  0  0  0  0  0  0  0
   -2.8714   18.2133  -23.3529 C   0  0  0  0  0  0  0  0  0  0  0  0
   -0.1714   18.2133  -27.7529 C   0  0  0  0  0  0  0  0  0  0  0  0
   -0.3714   19.7133  -25.7529 C   0  0  0  0  0  0  0  0  0  0  0  0
   -0.1714   19.6133  -27.3529 C   0  0  0  0  0  0  0  0  0  0  0  0
    1.0286   17.8133  -28.2529 N   0  0  0  0  0  0  0  0  0  0  0  0
    1.7286   17.2133  -29.3529 C   0  0  0  0  0  0  0  0  0  0  0  0
    1.4286   17.5133  -30.4529 O   0  0  0  0  0  0  0  0  0  0  0  0
    2.9286   16.5133  -29.0529 C   0  0  0  0  0  0  0  0  0  0  0  0
    0.7286   20.2133  -28.3529 C   0  0  0  0  0  0  0  0  0  0  0  0
  2  1  1  0
  3  2  1  0
  4  3  1  0
  5  4  1  0
  6  3  1  0
  7  1  1  0
  7  5  1  0
  8  6  1  0
  9  4  1  0
 10  8  1  0
 10  9  1  0
 11  8  1  0
 12 11  1  0
 13 12  2  0
 14 12  1  0
 15 10  1  0
M  END
>  <ID>  (1) 
conformer_0

$$$$
