
     RDKit          3D

 12 11  0  0  0  0  0  0  0  0999 V2000
   -1.3949   11.7042  -29.8194 C   0  0  0  0  0  0  0  0  0  0  0  0
   -0.4949   11.3042  -30.9194 C   0  0  0  0  0  0  0  0  0  0  0  0
   -2.2949   10.6042  -29.5194 C   0  0  0  0  0  0  0  0  0  0  0  0
   -1.0949   12.7042  -28.9194 C   0  0  0  0  0  0  0  0  0  0  0  0
   -2.0949   13.7042  -28.4194 C   0  0  0  0  0  0  0  0  0  0  0  0
   -1.7949   15.1042  -28.3194 C   0  0  0  0  0  0  0  0  0  0  0  0
   -2.0949   15.9042  -27.2194 C   0  0  0  0  0  0  0  0  0  0  0  0
   -1.2949   17.1042  -26.9194 C   0  0  0  0  0  0  0  0  0  0  0  0
   -1.7949   17.8042  -25.7194 C   0  0  0  0  0  0  0  0  0  0  0  0
   -3.0949   17.4042  -25.3194 C   0  0  0  0  0  0  0  0  0  0  0  0
   -1.1949   19.0042  -25.1194 C   0  0  0  0  0  0  0  0  0  0  0  0
   -2.1949   19.5042  -24.1194 C   0  0  0  0  0  0  0  0  0  0  0  0
  2  1  1  0
  3  1  1  0
  4  1  1  0
  5  4  1  0
  6  5  1  0
  7  6  1  0
  8  7  1  0
  9  8  1  0
 10  9  1  0
 11  9  1  0
 12 11  1  0
M  END
>  <ID>  (1) 
conformer_0

$$$$
