
     RDKit          3D

 13 12  0  0  0  0  0  0  0  0999 V2000
   -1.3949   11.7042  -29.8194 C   0  0  0  0  0  0  0  0  0  0  0  0
   -0.4949   11.3042  -30.9194 C   0  0  0  0  0  0  0  0  0  0  0  0
   -2.2949   10.6042  -29.5194 C   0  0  0  0  0  0  0  0  0  0  0  0
   -1.1949   12.7042  -28.8194 C   0  0  0  0  0  0  0  0  0  0  0  0
   -2.1949   13.6042  -28.4194 C   0  0  0  0  0  0  0  0  0  0  0  0
   -2.0949   15.0042  -28.2194 C   0  0  0  0  0  0  0  0  0  0  0  0
   -2.0949   15.8042  -27.0194 C   0  0  0  0  0  0  0  0  0  0  0  0
   -1.3949   17.0042  -26.7194 C   0  0  0  0  0  0  0  0  0  0  0  0
   -1.6949   18.2042  -26.0194 C   0  0  0  0  0  0  0  0  0  0  0  0
   -1.2949   18.8042  -24.8194 C   0  0  0  0  0  0  0  0  0  0  0  0
   -2.0949   18.5042  -23.6194 C   0  0  0  0  0  0  0  0  0  0  0  0
   -1.2949   18.1042  -22.5194 C   0  0  0  0  0  0  0  0  0  0  0  0
   -1.6949   18.1042  -21.2194 C   0  0  0  0  0  0  0  0  0  0  0  0
  2  1  1  0
  3  1  1  0
  4  1  1  0
  5  4  1  0
  6  5  1  0
  7  6  1  0
  8  7  1  0
  9  8  1  0
 10  9  1  0
 11 10  1  0
 12 11  1  0
 13 12  2  0
M  END
>  <ID>  (1) 
conformer_0

$$$$
