
     RDKit          3D

 17 19  0  0  0  0  0  0  0  0999 V2000
   -3.8714   17.9133  -24.5529 C   0  0  0  0  0  0  0  0  0  0  0  0
   -2.7714   17.5133  -25.4529 C   0  0  0  0  0  0  0  0  0  0  0  0
   -1.5714   18.3133  -25.6529 C   0  0  0  0  0  0  0  0  0  0  0  0
   -0.8714   18.1133  -26.9529 C   0  0  0  0  0  0  0  0  0  0  0  0
    0.0286   19.1133  -27.5529 C   0  0  0  0  0  0  0  0  0  0  0  0
    1.1286   18.5133  -28.2529 C   0  0  0  0  0  0  0  0  0  0  0  0
    0.8286   17.1133  -28.6529 C   0  0  0  0  0  0  0  0  0  0  0  0
   -1.0714   19.1133  -24.5529 C   0  0  0  0  0  0  0  0  0  0  0  0
   -1.8714   18.7133  -23.3529 C   0  0  0  0  0  0  0  0  0  0  0  0
    1.9286   16.3133  -29.0529 C   0  0  0  0  0  0  0  0  0  0  0  0
   -0.5714   16.7133  -28.7529 C   0  0  0  0  0  0  0  0  0  0  0  0
   -1.3714   16.8133  -27.4529 C   0  0  0  0  0  0  0  0  0  0  0  0
    2.7286   16.7133  -30.2529 C   0  0  0  0  0  0  0  0  0  0  0  0
    2.3286   18.1133  -30.5529 C   0  0  0  0  0  0  0  0  0  0  0  0
    1.8286   18.5133  -31.6529 O   0  0  0  0  0  0  0  0  0  0  0  0
    1.8286   19.0133  -29.4529 C   0  0  0  0  0  0  0  0  0  0  0  0
   -3.0714   18.0133  -23.1529 C   0  0  0  0  0  0  0  0  0  0  0  0
  2  1  1  0
  3  2  1  0
  4  3  1  0
  5  4  1  0
  6  5  1  0
  7  6  1  0
  8  3  1  0
  9  8  1  0
 10  7  1  0
 11  7  1  0
 12  4  1  0
 12 11  1  0
 13 10  1  0
 14 13  1  0
 15 14  2  0
 16  6  1  0
 16 14  1  0
 17  1  1  0
 17  9  1  0
M  END
>  <ID>  (1) 
conformer_0

$$$$
