
     RDKit          3D

 24 27  0  0  0  0  0  0  0  0999 V2000
   -3.8714   17.9133  -24.5529 C   0  0  0  0  0  0  0  0  0  0  0  0
   -3.1714   17.2133  -25.6529 C   0  0  0  0  0  0  0  0  0  0  0  0
   -1.9714   17.9133  -26.1529 C   0  0  0  0  0  0  0  0  0  0  0  0
   -1.5714   19.0133  -25.2529 C   0  0  0  0  0  0  0  0  0  0  0  0
   -1.4714   18.5133  -23.8529 C   0  0  0  0  0  0  0  0  0  0  0  0
   -0.9714   17.4133  -27.0529 C   0  0  0  0  0  0  0  0  0  0  0  0
   -0.4714   19.8133  -25.8529 C   0  0  0  0  0  0  0  0  0  0  0  0
   -0.0714   19.6133  -27.2529 C   0  0  0  0  0  0  0  0  0  0  0  0
   -0.1714   18.3133  -27.8529 C   0  0  0  0  0  0  0  0  0  0  0  0
    1.0286   17.8133  -28.5529 C   0  0  0  0  0  0  0  0  0  0  0  0
    1.2286   18.6133  -29.7529 C   0  0  0  0  0  0  0  0  0  0  0  0
    1.1286   16.4133  -28.7529 C   0  0  0  0  0  0  0  0  0  0  0  0
   -2.7714   18.1133  -23.4529 C   0  0  0  0  0  0  0  0  0  0  0  0
    1.9286   17.8133  -30.5529 N   0  0  0  0  0  0  0  0  0  0  0  0
    2.8286   16.8133  -30.0529 C   0  0  0  0  0  0  0  0  0  0  0  0
    1.1286   19.8133  -29.9529 O   0  0  0  0  0  0  0  0  0  0  0  0
    2.5286   16.1133  -28.9529 C   0  0  0  0  0  0  0  0  0  0  0  0
   -0.0714   15.8133  -28.4529 N   0  0  0  0  0  0  0  0  0  0  0  0
   -1.0714   16.3133  -27.6529 N   0  0  0  0  0  0  0  0  0  0  0  0
   -0.0714   14.3133  -28.4529 C   0  0  0  0  0  0  0  0  0  0  0  0
   -1.4714   13.8133  -28.3529 C   0  0  0  0  0  0  0  0  0  0  0  0
   -1.6714   12.7133  -29.2529 C   0  0  0  0  0  0  0  0  0  0  0  0
   -0.3714   12.1133  -29.6529 C   0  0  0  0  0  0  0  0  0  0  0  0
   -0.1714   11.4133  -30.8529 C   0  0  0  0  0  0  0  0  0  0  0  0
  2  1  1  0
  3  2  1  0
  4  3  1  0
  5  4  1  0
  6  3  1  0
  7  4  1  0
  8  7  1  0
  9  6  1  0
  9  8  1  0
 10  9  2  0
 11 10  1  0
 12 10  1  0
 13  1  1  0
 13  5  1  0
 14 11  1  0
 15 14  1  0
 16 11  2  0
 17 12  1  0
 17 15  1  0
 18 12  1  0
 19  6  2  0
 19 18  1  0
 20 18  1  0
 21 20  1  0
 22 21  1  0
 23 22  1  0
 24 23  1  0
M  END
>  <ID>  (1) 
conformer_0

$$$$
