
     RDKit          3D

 25 29  0  0  0  0  0  0  0  0999 V2000
   -1.4703   18.0367  -25.8949 C   0  0  0  0  0  0  0  0  0  0  0  0
   -1.3703   18.7367  -24.5949 C   0  0  0  0  0  0  0  0  0  0  0  0
   -2.5703   18.3367  -23.7949 C   0  0  0  0  0  0  0  0  0  0  0  0
   -3.6703   18.0367  -24.6949 C   0  0  0  0  0  0  0  0  0  0  0  0
   -2.0703   16.7367  -26.0949 C   0  0  0  0  0  0  0  0  0  0  0  0
   -0.6703   18.5367  -26.9949 C   0  0  0  0  0  0  0  0  0  0  0  0
   -0.3703   17.5367  -27.9949 C   0  0  0  0  0  0  0  0  0  0  0  0
    0.9297   17.7367  -28.6949 C   0  0  0  0  0  0  0  0  0  0  0  0
    1.6297   16.5367  -29.0949 C   0  0  0  0  0  0  0  0  0  0  0  0
    2.7297   16.7367  -30.0949 C   0  0  0  0  0  0  0  0  0  0  0  0
   -2.3703   17.8367  -22.4949 C   0  0  0  0  0  0  0  0  0  0  0  0
   -0.9703   17.7367  -22.0949 C   0  0  0  0  0  0  0  0  0  0  0  0
   -0.2703   19.2367  -23.8949 C   0  0  0  0  0  0  0  0  0  0  0  0
   -0.1703   18.8367  -22.4949 C   0  0  0  0  0  0  0  0  0  0  0  0
   -1.9703   15.7367  -27.1949 C   0  0  0  0  0  0  0  0  0  0  0  0
   -0.9703   16.3367  -28.1949 C   0  0  0  0  0  0  0  0  0  0  0  0
    1.1297   19.0367  -29.3949 C   0  0  0  0  0  0  0  0  0  0  0  0
    0.3297   19.6367  -27.1949 C   0  0  0  0  0  0  0  0  0  0  0  0
    1.8297   19.0367  -30.6949 C   0  0  0  0  0  0  0  0  0  0  0  0
    2.7297   17.9367  -30.6949 C   0  0  0  0  0  0  0  0  0  0  0  0
   -0.3703   16.4367  -21.9949 O   0  0  0  0  0  0  0  0  0  0  0  0
   -2.9703   14.9367  -27.6949 O   0  0  0  0  0  0  0  0  0  0  0  0
   -3.4703   16.8367  -25.4949 O   0  0  0  0  0  0  0  0  0  0  0  0
    0.3297   19.8367  -28.5949 O   0  0  0  0  0  0  0  0  0  0  0  0
    1.2297   15.1367  -28.8949 C   0  0  0  0  0  0  0  0  0  0  0  0
  2  1  1  0
  3  2  1  0
  4  3  1  0
  5  1  2  0
  6  1  1  0
  7  6  2  0
  8  7  1  0
  9  8  1  0
 10  9  1  0
 11  3  1  0
 12 11  1  0
 13  2  1  0
 14 12  1  0
 14 13  1  0
 15  5  1  0
 16  7  1  0
 16 15  2  0
 17  8  1  0
 18  6  1  0
 19 17  1  0
 20 10  1  0
 20 19  1  0
 21 12  1  0
 22 15  1  0
 23  4  1  0
 23  5  1  0
 24 17  1  0
 24 18  1  0
 25  9  1  0
M  END
>  <ID>  (1) 
conformer_0

$$$$
