
     RDKit          3D

  9 10  0  0  0  0  0  0  0  0999 V2000
   -3.8714   17.9133  -24.5529 C   0  0  0  0  0  0  0  0  0  0  0  0
   -3.1714   17.2133  -25.6529 C   0  0  0  0  0  0  0  0  0  0  0  0
   -1.7714   17.6133  -25.9529 C   0  0  0  0  0  0  0  0  0  0  0  0
   -1.3714   18.8133  -25.1529 C   0  0  0  0  0  0  0  0  0  0  0  0
   -1.7714   19.0133  -23.7529 C   0  0  0  0  0  0  0  0  0  0  0  0
   -1.0714   17.5133  -27.2529 C   0  0  0  0  0  0  0  0  0  0  0  0
   -0.3714   19.6133  -25.8529 C   0  0  0  0  0  0  0  0  0  0  0  0
   -2.8714   18.1133  -23.3529 C   0  0  0  0  0  0  0  0  0  0  0  0
   -0.0714   18.6133  -27.2529 C   0  0  0  0  0  0  0  0  0  0  0  0
  2  1  1  0
  3  2  1  0
  4  3  2  0
  5  4  1  0
  6  3  1  0
  7  4  1  0
  8  1  1  0
  8  5  1  0
  9  6  1  0
  9  7  2  0
M  END
>  <ID>  (1) 
conformer_0

$$$$
