
     RDKit          3D

 18 20  0  0  0  0  0  0  0  0999 V2000
   -3.8714   17.9133  -24.5529 C   0  0  0  0  0  0  0  0  0  0  0  0
   -2.7714   17.5133  -25.4529 C   0  0  0  0  0  0  0  0  0  0  0  0
   -1.5714   18.3133  -25.6529 C   0  0  0  0  0  0  0  0  0  0  0  0
   -0.8714   18.1133  -26.9529 C   0  0  0  0  0  0  0  0  0  0  0  0
    0.0286   19.1133  -27.5529 C   0  0  0  0  0  0  0  0  0  0  0  0
    1.1286   18.5133  -28.2529 C   0  0  0  0  0  0  0  0  0  0  0  0
    0.8286   17.1133  -28.6529 C   0  0  0  0  0  0  0  0  0  0  0  0
   -1.0714   19.1133  -24.5529 C   0  0  0  0  0  0  0  0  0  0  0  0
   -1.8714   18.7133  -23.3529 C   0  0  0  0  0  0  0  0  0  0  0  0
    2.0286   16.4133  -29.1529 C   0  0  0  0  0  0  0  0  0  0  0  0
    2.6286   17.0133  -30.3529 C   0  0  0  0  0  0  0  0  0  0  0  0
    2.0286   18.3133  -30.6529 C   0  0  0  0  0  0  0  0  0  0  0  0
    1.4286   19.1133  -29.5529 C   0  0  0  0  0  0  0  0  0  0  0  0
   -0.4714   16.5133  -28.7529 C   0  0  0  0  0  0  0  0  0  0  0  0
   -1.3714   16.8133  -27.4529 C   0  0  0  0  0  0  0  0  0  0  0  0
   -3.1714   18.4133  -23.3529 C   0  0  0  0  0  0  0  0  0  0  0  0
   -0.4714   20.3133  -27.8529 C   0  0  0  0  0  0  0  0  0  0  0  0
    1.7286   18.6133  -31.8529 O   0  0  0  0  0  0  0  0  0  0  0  0
  2  1  1  0
  3  2  1  0
  4  3  1  0
  5  4  1  0
  6  5  1  0
  7  6  1  0
  8  3  1  0
  9  8  1  0
 10  7  1  0
 11 10  1  0
 12 11  1  0
 13  6  1  0
 13 12  1  0
 14  7  1  0
 15  4  1  0
 15 14  1  0
 16  1  1  0
 16  9  1  0
 17  5  2  0
 18 12  2  0
M  END
>  <ID>  (1) 
conformer_0

$$$$
