
     RDKit          3D

  9  8  0  0  0  0  0  0  0  0999 V2000
   -2.9584    9.1195  -27.2772 C   0  0  0  0  0  0  0  0  0  0  0  0
   -3.2584   10.5195  -27.5772 C   0  0  0  0  0  0  0  0  0  0  0  0
   -2.2584   11.4195  -28.0772 C   0  0  0  0  0  0  0  0  0  0  0  0
   -1.8584   11.9195  -29.2772 C   0  0  0  0  0  0  0  0  0  0  0  0
   -0.6584   11.7195  -29.9772 C   0  0  0  0  0  0  0  0  0  0  0  0
   -0.4584   11.2195  -31.2772 C   0  0  0  0  0  0  0  0  0  0  0  0
   -4.4584   10.8195  -26.7772 C   0  0  0  0  0  0  0  0  0  0  0  0
   -5.3584   10.0195  -27.0772 O   0  0  0  0  0  0  0  0  0  0  0  0
   -4.0584   10.8195  -25.3772 C   0  0  0  0  0  0  0  0  0  0  0  0
  2  1  1  0
  3  2  1  0
  4  3  1  0
  5  4  1  0
  6  5  1  0
  7  2  1  0
  8  7  1  0
  9  7  1  0
M  END
>  <ID>  (1) 
conformer_0

$$$$
