
     RDKit          3D

 14 13  0  0  0  0  0  0  0  0999 V2000
   -1.7757   11.4411  -29.5050 C   0  0  0  0  0  0  0  0  0  0  0  0
   -0.4757   11.9411  -29.9050 C   0  0  0  0  0  0  0  0  0  0  0  0
   -2.0757   10.0411  -29.3050 C   0  0  0  0  0  0  0  0  0  0  0  0
   -2.2757   12.2411  -28.4050 C   0  0  0  0  0  0  0  0  0  0  0  0
   -1.9757   13.6411  -28.6050 C   0  0  0  0  0  0  0  0  0  0  0  0
   -2.2757   14.8411  -28.0050 C   0  0  0  0  0  0  0  0  0  0  0  0
   -1.6757   15.8411  -27.2050 C   0  0  0  0  0  0  0  0  0  0  0  0
   -2.5757   16.6411  -26.4050 C   0  0  0  0  0  0  0  0  0  0  0  0
   -0.8757   16.8411  -27.9050 C   0  0  0  0  0  0  0  0  0  0  0  0
   -0.7757   18.1411  -27.2050 C   0  0  0  0  0  0  0  0  0  0  0  0
    0.1243   19.1411  -27.6050 C   0  0  0  0  0  0  0  0  0  0  0  0
    1.2243   18.5411  -28.4050 C   0  0  0  0  0  0  0  0  0  0  0  0
    1.4243   17.1411  -28.5050 C   0  0  0  0  0  0  0  0  0  0  0  0
    2.4243   16.6411  -29.5050 C   0  0  0  0  0  0  0  0  0  0  0  0
  2  1  1  0
  3  1  1  0
  4  1  1  0
  5  4  1  0
  6  5  1  0
  7  6  1  0
  8  7  1  0
  9  7  1  0
 10  9  1  0
 11 10  1  0
 12 11  1  0
 13 12  2  3
 14 13  1  0
M  END
>  <ID>  (1) 
conformer_0

$$$$
