
     RDKit          3D

 21 22  0  0  0  0  0  0  0  0999 V2000
   -3.8714   17.9133  -24.5529 C   0  0  0  0  0  0  0  0  0  0  0  0
   -3.1714   17.2133  -25.6529 C   0  0  0  0  0  0  0  0  0  0  0  0
   -1.9714   17.9133  -26.1529 C   0  0  0  0  0  0  0  0  0  0  0  0
   -1.5714   19.0133  -25.2529 C   0  0  0  0  0  0  0  0  0  0  0  0
   -1.5714   18.6133  -23.8529 C   0  0  0  0  0  0  0  0  0  0  0  0
   -1.0714   17.3133  -27.0529 C   0  0  0  0  0  0  0  0  0  0  0  0
   -0.4714   19.8133  -25.8529 C   0  0  0  0  0  0  0  0  0  0  0  0
   -0.0714   19.5133  -27.2529 C   0  0  0  0  0  0  0  0  0  0  0  0
   -0.0714   18.1133  -27.6529 C   0  0  0  0  0  0  0  0  0  0  0  0
    0.9286   17.6133  -28.4529 C   0  0  0  0  0  0  0  0  0  0  0  0
    1.3286   18.0133  -29.7529 C   0  0  0  0  0  0  0  0  0  0  0  0
    2.4286   17.2133  -30.3529 C   0  0  0  0  0  0  0  0  0  0  0  0
   -2.7714   18.1133  -23.3529 C   0  0  0  0  0  0  0  0  0  0  0  0
    1.3286   19.5133  -29.7529 C   0  0  0  0  0  0  0  0  0  0  0  0
   -1.4714   16.2133  -27.8529 O   0  0  0  0  0  0  0  0  0  0  0  0
   -2.2714   15.2133  -27.6529 C   0  0  0  0  0  0  0  0  0  0  0  0
   -2.3714   14.1133  -28.6529 C   0  0  0  0  0  0  0  0  0  0  0  0
   -1.8714   12.8133  -28.2529 C   0  0  0  0  0  0  0  0  0  0  0  0
   -1.8714   11.6133  -28.9529 C   0  0  0  0  0  0  0  0  0  0  0  0
   -0.8714   11.0133  -29.8529 C   0  0  0  0  0  0  0  0  0  0  0  0
   -0.6714   11.2133  -31.2529 C   0  0  0  0  0  0  0  0  0  0  0  0
  2  1  1  0
  3  2  1  0
  4  3  2  0
  5  4  1  0
  6  3  1  0
  7  4  1  0
  8  7  2  0
  9  6  2  0
  9  8  1  0
 10  9  1  0
 11 10  1  0
 12 11  1  0
 13  1  1  0
 13  5  1  0
 14 11  1  0
 15  6  1  0
 16 15  1  0
 17 16  1  0
 18 17  2  3
 19 18  1  0
 20 19  1  0
 21 20  1  0
M  END
>  <ID>  (1) 
conformer_0

$$$$
