
     RDKit          3D

 11 10  0  0  0  0  0  0  0  0999 V2000
   -1.3949   11.7042  -29.8194 C   0  0  0  0  0  0  0  0  0  0  0  0
   -0.2949   11.4042  -30.7194 C   0  0  0  0  0  0  0  0  0  0  0  0
   -2.3949   10.7042  -29.8194 C   0  0  0  0  0  0  0  0  0  0  0  0
   -1.1949   12.6042  -28.7194 C   0  0  0  0  0  0  0  0  0  0  0  0
   -1.9949   13.7042  -28.3194 C   0  0  0  0  0  0  0  0  0  0  0  0
   -1.7949   15.1042  -28.3194 C   0  0  0  0  0  0  0  0  0  0  0  0
   -1.8949   16.0042  -27.2194 C   0  0  0  0  0  0  0  0  0  0  0  0
   -1.0949   17.2042  -27.3194 C   0  0  0  0  0  0  0  0  0  0  0  0
   -1.2949   18.2042  -26.2194 C   0  0  0  0  0  0  0  0  0  0  0  0
   -2.4949   17.8042  -25.4194 C   0  0  0  0  0  0  0  0  0  0  0  0
   -3.2949   18.8042  -24.9194 C   0  0  0  0  0  0  0  0  0  0  0  0
  2  1  1  0
  3  1  1  0
  4  1  1  0
  5  4  1  0
  6  5  1  0
  7  6  1  0
  8  7  2  3
  9  8  1  0
 10  9  1  0
 11 10  2  0
M  END
>  <ID>  (1) 
conformer_0

$$$$
