
     RDKit          3D

 25 27  0  0  0  0  0  0  0  0999 V2000
   -3.8714   17.9133  -24.5529 C   0  0  0  0  0  0  0  0  0  0  0  0
   -3.1714   17.2133  -25.6529 C   0  0  0  0  0  0  0  0  0  0  0  0
   -1.7714   17.6133  -25.9529 C   0  0  0  0  0  0  0  0  0  0  0  0
   -1.5714   18.9133  -25.2529 C   0  0  0  0  0  0  0  0  0  0  0  0
   -1.7714   19.1133  -23.8529 C   0  0  0  0  0  0  0  0  0  0  0  0
   -0.9714   17.3133  -27.1529 C   0  0  0  0  0  0  0  0  0  0  0  0
   -0.4714   19.7133  -25.8529 C   0  0  0  0  0  0  0  0  0  0  0  0
    0.0286   19.4133  -27.1529 C   0  0  0  0  0  0  0  0  0  0  0  0
   -0.1714   18.3133  -27.8529 C   0  0  0  0  0  0  0  0  0  0  0  0
    0.8286   17.7133  -28.7529 C   0  0  0  0  0  0  0  0  0  0  0  0
   -2.7714   18.1133  -23.3529 C   0  0  0  0  0  0  0  0  0  0  0  0
    1.5286   18.6133  -29.5529 C   0  0  0  0  0  0  0  0  0  0  0  0
    2.4286   18.2133  -30.6529 C   0  0  0  0  0  0  0  0  0  0  0  0
   -1.4714   16.1133  -27.8529 O   0  0  0  0  0  0  0  0  0  0  0  0
   -2.4714   15.4133  -27.2529 C   0  0  0  0  0  0  0  0  0  0  0  0
   -3.0714   14.3133  -28.0529 C   0  0  0  0  0  0  0  0  0  0  0  0
   -2.1714   13.7133  -29.0529 C   0  0  0  0  0  0  0  0  0  0  0  0
   -1.8714   12.3133  -29.0529 C   0  0  0  0  0  0  0  0  0  0  0  0
   -1.2714   11.7133  -30.2529 C   0  0  0  0  0  0  0  0  0  0  0  0
   -0.9714   10.3133  -30.1529 C   0  0  0  0  0  0  0  0  0  0  0  0
   -1.9714    9.8133  -29.1529 C   0  0  0  0  0  0  0  0  0  0  0  0
   -2.3714   10.2133  -27.8529 C   0  0  0  0  0  0  0  0  0  0  0  0
   -2.8714    9.3133  -26.9529 C   0  0  0  0  0  0  0  0  0  0  0  0
   -3.7714    9.9133  -25.9529 O   0  0  0  0  0  0  0  0  0  0  0  0
   -2.2714   11.7133  -27.8529 O   0  0  0  0  0  0  0  0  0  0  0  0
  2  1  1  0
  3  2  1  0
  4  3  2  0
  5  4  1  0
  6  3  1  0
  7  4  1  0
  8  7  2  0
  9  6  2  0
  9  8  1  0
 10  9  1  0
 11  1  1  0
 11  5  1  0
 12 10  2  3
 13 12  1  0
 14  6  1  0
 15 14  1  0
 16 15  1  0
 17 16  1  0
 18 17  2  3
 19 18  1  0
 20 19  1  0
 21 20  1  0
 22 21  1  0
 23 22  1  0
 24 23  1  0
 25 18  1  0
 25 22  1  0
M  END
>  <ID>  (1) 
conformer_0

$$$$
