
     RDKit          3D

 18 17  0  0  0  0  0  0  0  0999 V2000
   -1.3949   11.7042  -29.8194 C   0  0  0  0  0  0  0  0  0  0  0  0
   -0.4949   11.3042  -30.9194 C   0  0  0  0  0  0  0  0  0  0  0  0
   -2.3949   10.7042  -29.3194 C   0  0  0  0  0  0  0  0  0  0  0  0
   -1.2949   12.8042  -28.8194 C   0  0  0  0  0  0  0  0  0  0  0  0
   -2.1949   13.9042  -28.6194 C   0  0  0  0  0  0  0  0  0  0  0  0
   -1.9949   15.2042  -28.0194 C   0  0  0  0  0  0  0  0  0  0  0  0
   -2.0949   16.0042  -26.9194 C   0  0  0  0  0  0  0  0  0  0  0  0
   -1.2949   17.1042  -26.5194 C   0  0  0  0  0  0  0  0  0  0  0  0
   -1.5949   18.3042  -25.9194 C   0  0  0  0  0  0  0  0  0  0  0  0
   -0.6949   19.4042  -26.1194 C   0  0  0  0  0  0  0  0  0  0  0  0
    0.0051   19.3042  -27.4194 C   0  0  0  0  0  0  0  0  0  0  0  0
    0.2051   18.2042  -28.2194 C   0  0  0  0  0  0  0  0  0  0  0  0
    1.5051   17.7042  -28.7194 C   0  0  0  0  0  0  0  0  0  0  0  0
    2.0051   17.8042  -30.0194 C   0  0  0  0  0  0  0  0  0  0  0  0
    2.9051   17.0042  -30.6194 C   0  0  0  0  0  0  0  0  0  0  0  0
   -2.6949   18.5042  -24.9194 C   0  0  0  0  0  0  0  0  0  0  0  0
   -3.4949   17.3042  -25.1194 C   0  0  0  0  0  0  0  0  0  0  0  0
    1.7051   19.1042  -30.6194 C   0  0  0  0  0  0  0  0  0  0  0  0
  2  1  1  0
  3  1  1  0
  4  1  1  0
  5  4  1  0
  6  5  1  0
  7  6  1  0
  8  7  1  0
  9  8  1  0
 10  9  1  0
 11 10  1  0
 12 11  1  0
 13 12  1  0
 14 13  1  0
 15 14  2  0
 16  9  1  0
 17 16  1  0
 18 14  1  0
M  END
>  <ID>  (1) 
conformer_0

$$$$
