
     RDKit          3D

 16 18  0  0  0  0  0  0  0  0999 V2000
   -3.8714   17.9133  -24.5529 C   0  0  0  0  0  0  0  0  0  0  0  0
   -2.7714   17.5133  -25.4529 C   0  0  0  0  0  0  0  0  0  0  0  0
   -1.7714   18.4133  -25.8529 C   0  0  0  0  0  0  0  0  0  0  0  0
   -0.7714   18.1133  -26.8529 C   0  0  0  0  0  0  0  0  0  0  0  0
   -0.1714   18.9133  -27.7529 C   0  0  0  0  0  0  0  0  0  0  0  0
   -1.6714   19.4133  -24.7529 C   0  0  0  0  0  0  0  0  0  0  0  0
    0.7286   18.5133  -28.8529 C   0  0  0  0  0  0  0  0  0  0  0  0
    0.9286   17.1133  -28.8529 C   0  0  0  0  0  0  0  0  0  0  0  0
    2.1286   16.6133  -29.3529 N   0  0  0  0  0  0  0  0  0  0  0  0
    2.8286   17.4133  -30.3529 C   0  0  0  0  0  0  0  0  0  0  0  0
   -0.8714   16.7133  -27.3529 C   0  0  0  0  0  0  0  0  0  0  0  0
   -0.1714   16.4133  -28.4529 N   0  0  0  0  0  0  0  0  0  0  0  0
    2.3286   18.7133  -30.7529 C   0  0  0  0  0  0  0  0  0  0  0  0
    1.4286   19.3133  -29.7529 O   0  0  0  0  0  0  0  0  0  0  0  0
   -1.9714   15.7133  -27.1529 C   0  0  0  0  0  0  0  0  0  0  0  0
    3.2286   17.4133  -28.9529 C   0  0  0  0  0  0  0  0  0  0  0  0
  2  1  1  0
  3  2  1  0
  4  3  1  0
  5  4  2  0
  6  3  1  0
  7  5  1  0
  8  7  2  0
  9  8  1  0
 10  9  1  0
 11  4  1  0
 12  8  1  0
 12 11  2  0
 13 10  1  0
 14  7  1  0
 14 13  1  0
 15 11  1  0
 16  9  1  0
 16 10  1  0
M  END
>  <ID>  (1) 
conformer_0

$$$$
