
     RDKit          3D

  9  9  0  0  0  0  0  0  0  0999 V2000
   -3.8320   18.1046  -24.5735 C   0  0  0  0  0  0  0  0  0  0  0  0
   -2.5320   18.6046  -25.0735 C   0  0  0  0  0  0  0  0  0  0  0  0
   -1.7320   17.8046  -25.9735 C   0  0  0  0  0  0  0  0  0  0  0  0
   -0.8320   18.4046  -26.9735 C   0  0  0  0  0  0  0  0  0  0  0  0
   -2.5320   16.6046  -26.2735 C   0  0  0  0  0  0  0  0  0  0  0  0
   -1.9320   19.6046  -24.2735 C   0  0  0  0  0  0  0  0  0  0  0  0
   -0.5320   17.7046  -28.1735 C   0  0  0  0  0  0  0  0  0  0  0  0
   -2.1320   15.7046  -27.3735 C   0  0  0  0  0  0  0  0  0  0  0  0
   -1.0320   16.3046  -28.3735 C   0  0  0  0  0  0  0  0  0  0  0  0
  2  1  1  0
  3  2  1  0
  4  3  2  0
  5  3  1  0
  6  2  1  0
  7  4  1  0
  8  5  2  0
  9  7  2  0
  9  8  1  0
M  END
>  <ID>  (1) 
conformer_0

$$$$
