
     RDKit          3D

 14 14  0  0  0  0  0  0  0  0999 V2000
   15.5574   56.4766   83.0208 C   0  0  0  0  0  0  0  0  0  0  0  0
   14.8495   56.3972   81.9230 C   0  0  0  0  0  0  0  0  0  0  0  0
   16.3814   57.2966   83.3375 O   0  0  0  0  0  0  0  0  0  0  0  0
   15.0668   57.3586   81.0374 C   0  0  0  0  0  0  0  0  0  0  0  0
   13.7571   55.7574   82.0416 C   0  0  0  0  0  0  0  0  0  0  0  0
   15.9991   57.5285   80.2546 O   0  0  0  0  0  0  0  0  0  0  0  0
   12.6151   56.0595   81.1744 C   0  0  0  0  0  0  0  0  0  0  0  0
   15.2348   55.6078   84.0591 O   0  0  0  0  0  0  0  0  0  0  0  0
   11.3554   55.6823   81.4122 C   0  0  0  0  0  0  0  0  0  0  0  0
   12.7625   57.2538   80.3440 C   0  0  0  0  0  0  0  0  0  0  0  0
   13.9814   57.7643   80.1670 N   0  0  0  0  0  0  0  0  0  0  0  0
   14.2030   58.8481   79.1849 C   0  0  0  0  0  0  0  0  0  0  0  0
   11.0228   54.7738   82.1128 O   0  0  0  0  0  0  0  0  0  0  0  0
   10.3538   56.1200   80.5161 O   0  0  0  0  0  0  0  0  0  0  0  0
  1  2  1  0
  1  3  1  0
  2  4  1  0
  2  5  1  0
  4  6  2  0
  5  7  1  0
  1  8  2  0
  7  9  1  0
  7 10  2  0
  4 11  1  0
 10 11  1  0
 11 12  1  0
  9 13  2  0
  9 14  1  0
M  END
>  <ID>  (1) 
conformer_0

$$$$
