
     RDKit          3D

 13 13  0  0  0  0  0  0  0  0999 V2000
   12.8481   56.3241   81.0555 C   0  0  0  0  0  0  0  0  0  0  0  0
   12.9641   57.4321   80.4919 C   0  0  0  0  0  0  0  0  0  0  0  0
   11.7954   58.0278   79.7027 O   0  0  0  0  0  0  0  0  0  0  0  0
   14.0001   55.8740   81.7160 C   0  0  0  0  0  0  0  0  0  0  0  0
   14.0847   58.3515   80.4274 C   0  0  0  0  0  0  0  0  0  0  0  0
   15.1975   56.6121   81.6832 C   0  0  0  0  0  0  0  0  0  0  0  0
   15.2212   57.7974   81.0769 C   0  0  0  0  0  0  0  0  0  0  0  0
   14.1195   59.6290   79.7937 O   0  0  0  0  0  0  0  0  0  0  0  0
   11.5264   55.5476   81.0405 C   0  0  0  0  0  0  0  0  0  0  0  0
   10.5171   56.2337   80.9831 O   0  0  0  0  0  0  0  0  0  0  0  0
   11.4038   54.4157   81.7815 O   0  0  0  0  0  0  0  0  0  0  0  0
   16.3406   56.0851   82.4662 C   0  0  0  0  0  0  0  0  0  0  0  0
   16.2583   56.6231   83.7611 C   0  0  0  0  0  0  0  0  0  0  0  0
  1  2  2  0
  2  3  1  0
  1  4  1  0
  2  5  1  0
  4  6  2  0
  5  7  2  0
  6  7  1  0
  5  8  1  0
  1  9  1  0
  9 10  1  0
  9 11  2  0
  6 12  1  0
 12 13  1  0
M  END
>  <ID>  (1) 
conformer_0

$$$$
