
     RDKit          3D

 12 12  0  0  0  0  0  0  0  0999 V2000
   15.6512   56.0790   82.3314 C   0  0  0  0  0  0  0  0  0  0  0  0
   14.4111   56.1675   81.8035 C   0  0  0  0  0  0  0  0  0  0  0  0
   13.9674   57.2644   81.1329 C   0  0  0  0  0  0  0  0  0  0  0  0
   12.5558   57.2520   80.7568 C   0  0  0  0  0  0  0  0  0  0  0  0
   11.6476   56.3353   80.9498 C   0  0  0  0  0  0  0  0  0  0  0  0
   13.3152   55.0751   82.1962 C   0  0  0  0  0  0  0  0  0  0  0  0
   12.0756   58.4049   79.9528 O   0  0  0  0  0  0  0  0  0  0  0  0
   13.7640   53.9929   82.9259 O   0  0  0  0  0  0  0  0  0  0  0  0
   10.2895   56.4556   80.4803 O   0  0  0  0  0  0  0  0  0  0  0  0
   12.0473   55.1829   81.7241 C   0  0  0  0  0  0  0  0  0  0  0  0
   16.1869   57.0221   83.0272 O   0  0  0  0  0  0  0  0  0  0  0  0
   12.6702   59.6221   80.0326 C   0  0  0  0  0  0  0  0  0  0  0  0
  1  2  1  0
  2  3  2  0
  3  4  1  0
  4  5  2  0
  2  6  1  0
  4  7  1  0
  6  8  1  0
  5  9  1  0
  5 10  1  0
  6 10  2  0
  1 11  1  0
  7 12  1  0
M  END
>  <ID>  (1) 
conformer_0

$$$$
