
     RDKit          3D

 13 13  0  0  0  0  0  0  0  0999 V2000
   15.4893   55.6470   84.0258 O   0  0  0  0  0  0  0  0  0  0  0  0
   15.8576   56.6474   83.2560 C   0  0  0  0  0  0  0  0  0  0  0  0
   15.3094   56.4506   81.8276 C   0  0  0  0  0  0  0  0  0  0  0  0
   14.1649   57.0997   81.5008 C   0  0  0  0  0  0  0  0  0  0  0  0
   12.9812   56.5909   81.4403 C   0  0  0  0  0  0  0  0  0  0  0  0
   11.8333   57.3043   80.9418 C   0  0  0  0  0  0  0  0  0  0  0  0
   14.3706   58.4074   80.9834 C   0  0  0  0  0  0  0  0  0  0  0  0
   12.0193   58.5911   80.4633 C   0  0  0  0  0  0  0  0  0  0  0  0
   16.5737   57.5112   83.6218 O   0  0  0  0  0  0  0  0  0  0  0  0
   15.6268   58.9863   80.9383 O   0  0  0  0  0  0  0  0  0  0  0  0
   10.8760   59.2486   79.8376 O   0  0  0  0  0  0  0  0  0  0  0  0
   13.3320   59.1466   80.4035 C   0  0  0  0  0  0  0  0  0  0  0  0
   10.6877   56.7084   80.9838 O   0  0  0  0  0  0  0  0  0  0  0  0
  1  2  1  0
  2  3  1  0
  3  4  1  0
  4  5  2  0
  5  6  1  0
  4  7  1  0
  6  8  2  0
  2  9  2  0
  7 10  1  0
  8 11  1  0
  7 12  2  0
  8 12  1  0
  6 13  1  0
M  END
>  <ID>  (1) 
conformer_0

$$$$
