
     RDKit          3D

 13 14  0  0  0  0  0  0  0  0999 V2000
   14.4721   58.9375   79.1232 C   0  0  0  0  0  0  0  0  0  0  0  0
   13.9258   58.1179   80.0494 C   0  0  0  0  0  0  0  0  0  0  0  0
   12.5995   57.7530   80.1238 C   0  0  0  0  0  0  0  0  0  0  0  0
   14.9332   57.2916   80.7649 C   0  0  0  0  0  0  0  0  0  0  0  0
   11.7333   58.5971   79.4082 C   0  0  0  0  0  0  0  0  0  0  0  0
   11.9367   57.0093   81.1523 C   0  0  0  0  0  0  0  0  0  0  0  0
   12.2333   59.5620   78.5505 N   0  0  0  0  0  0  0  0  0  0  0  0
   12.9247   56.2169   81.9251 C   0  0  0  0  0  0  0  0  0  0  0  0
   14.3060   56.4151   81.7646 C   0  0  0  0  0  0  0  0  0  0  0  0
   15.8328   59.2232   79.0574 O   0  0  0  0  0  0  0  0  0  0  0  0
   13.6047   59.8148   78.5422 C   0  0  0  0  0  0  0  0  0  0  0  0
   15.2416   55.4897   82.5708 C   0  0  0  0  0  0  0  0  0  0  0  0
   15.1995   55.7849   83.9642 N   0  0  0  0  0  0  0  0  0  0  0  0
  1  2  1  0
  2  3  2  0
  2  4  1  0
  3  5  1  0
  3  6  1  0
  5  7  2  0
  6  8  2  0
  4  9  2  0
  8  9  1  0
  1 10  1  0
  1 11  2  0
  7 11  1  0
  9 12  1  0
 12 13  1  0
M  END
>  <ID>  (1) 
conformer_0

$$$$
