
     RDKit          3D

 14 15  0  0  0  0  0  0  0  0999 V2000
   14.4721   58.9375   79.1232 C   0  0  0  0  0  0  0  0  0  0  0  0
   13.9258   58.1179   80.0494 C   0  0  0  0  0  0  0  0  0  0  0  0
   14.8550   57.2825   80.7398 C   0  0  0  0  0  0  0  0  0  0  0  0
   12.5945   57.8974   80.1368 C   0  0  0  0  0  0  0  0  0  0  0  0
   12.0873   56.8423   80.9244 C   0  0  0  0  0  0  0  0  0  0  0  0
   12.8860   56.0779   81.6978 C   0  0  0  0  0  0  0  0  0  0  0  0
   16.2142   57.3737   80.7138 C   0  0  0  0  0  0  0  0  0  0  0  0
   14.2915   56.2384   81.5604 C   0  0  0  0  0  0  0  0  0  0  0  0
   10.6160   56.7505   81.0040 O   0  0  0  0  0  0  0  0  0  0  0  0
   11.5913   58.8181   79.5821 O   0  0  0  0  0  0  0  0  0  0  0  0
   15.8530   59.2469   79.1452 C   0  0  0  0  0  0  0  0  0  0  0  0
   15.1683   55.2250   82.4523 C   0  0  0  0  0  0  0  0  0  0  0  0
   16.7075   58.3379   79.7770 C   0  0  0  0  0  0  0  0  0  0  0  0
   15.4182   55.8188   83.7864 C   0  0  0  0  0  0  0  0  0  0  0  0
  1  2  1  0
  2  3  1  0
  2  4  2  0
  4  5  1  0
  5  6  2  0
  3  7  1  0
  3  8  2  0
  6  8  1  0
  5  9  1  0
  4 10  1  0
  1 11  2  0
  8 12  1  0
  7 13  2  0
 11 13  1  0
 12 14  1  0
M  END
>  <ID>  (1) 
conformer_0

$$$$
