
     RDKit          3D

 13 14  0  0  0  0  0  0  0  0999 V2000
   12.8481   56.3241   81.0555 C   0  0  0  0  0  0  0  0  0  0  0  0
   13.9861   55.9667   81.4937 C   0  0  0  0  0  0  0  0  0  0  0  0
   11.7137   55.5548   81.0843 O   0  0  0  0  0  0  0  0  0  0  0  0
   14.1299   54.8316   82.4224 C   0  0  0  0  0  0  0  0  0  0  0  0
   12.3791   57.6852   81.1336 C   0  0  0  0  0  0  0  0  0  0  0  0
   15.0738   56.8640   81.8534 C   0  0  0  0  0  0  0  0  0  0  0  0
   10.4687   56.0305   80.6367 C   0  0  0  0  0  0  0  0  0  0  0  0
   11.2206   58.1284   80.9310 C   0  0  0  0  0  0  0  0  0  0  0  0
   15.0877   55.0763   83.5529 C   0  0  0  0  0  0  0  0  0  0  0  0
   10.2144   57.2455   80.6008 C   0  0  0  0  0  0  0  0  0  0  0  0
    9.6651   55.0344   80.6271 O   0  0  0  0  0  0  0  0  0  0  0  0
   15.6544   56.3869   83.0934 C   0  0  0  0  0  0  0  0  0  0  0  0
   10.9609   59.5790   80.7257 O   0  0  0  0  0  0  0  0  0  0  0  0
  1  2  1  0
  1  3  1  0
  2  4  1  0
  1  5  2  0
  2  6  1  0
  3  7  1  0
  5  8  1  0
  4  9  1  0
  7 10  1  0
  8 10  2  0
  7 11  2  0
  6 12  1  0
  9 12  1  0
  8 13  1  0
M  END
>  <ID>  (1) 
conformer_0

$$$$
