
     RDKit          3D

 13 13  0  0  0  0  0  0  0  0999 V2000
   15.5574   56.4766   83.0208 C   0  0  0  0  0  0  0  0  0  0  0  0
   14.8495   56.3972   81.9230 C   0  0  0  0  0  0  0  0  0  0  0  0
   14.9237   57.3588   80.9914 C   0  0  0  0  0  0  0  0  0  0  0  0
   13.7399   57.7315   80.3547 C   0  0  0  0  0  0  0  0  0  0  0  0
   13.7215   58.9664   79.6301 C   0  0  0  0  0  0  0  0  0  0  0  0
   16.1917   57.4467   83.3733 O   0  0  0  0  0  0  0  0  0  0  0  0
   16.0877   57.6661   80.3835 C   0  0  0  0  0  0  0  0  0  0  0  0
   12.4164   59.3758   79.0666 O   0  0  0  0  0  0  0  0  0  0  0  0
   16.1717   58.7464   79.4482 C   0  0  0  0  0  0  0  0  0  0  0  0
   14.9577   59.2804   78.9765 C   0  0  0  0  0  0  0  0  0  0  0  0
   15.5730   55.3928   83.8489 O   0  0  0  0  0  0  0  0  0  0  0  0
   14.0825   55.2879   81.7068 O   0  0  0  0  0  0  0  0  0  0  0  0
   12.4197   57.5093   80.8513 O   0  0  0  0  0  0  0  0  0  0  0  0
  1  2  1  0
  2  3  1  0
  3  4  1  0
  4  5  2  0
  1  6  2  0
  3  7  2  0
  5  8  1  0
  7  9  1  0
  5 10  1  0
  9 10  2  0
  1 11  1  0
  2 12  2  0
  4 13  1  0
M  END
>  <ID>  (1) 
conformer_0

$$$$
