
     RDKit          3D

 13 14  0  0  0  0  0  0  0  0999 V2000
   12.8481   56.3241   81.0555 C   0  0  0  0  0  0  0  0  0  0  0  0
   12.9641   57.4321   80.4919 C   0  0  0  0  0  0  0  0  0  0  0  0
   11.5870   55.6678   81.0432 C   0  0  0  0  0  0  0  0  0  0  0  0
   11.8248   58.0799   79.8012 C   0  0  0  0  0  0  0  0  0  0  0  0
   13.9006   55.6241   81.7333 C   0  0  0  0  0  0  0  0  0  0  0  0
   14.1571   58.3451   80.3116 C   0  0  0  0  0  0  0  0  0  0  0  0
   15.3006   57.6225   80.9443 C   0  0  0  0  0  0  0  0  0  0  0  0
   11.9583   59.3293   79.1683 O   0  0  0  0  0  0  0  0  0  0  0  0
   14.9980   56.8025   82.0994 C   0  0  0  0  0  0  0  0  0  0  0  0
   10.4712   56.2573   80.5151 C   0  0  0  0  0  0  0  0  0  0  0  0
   15.9416   56.3456   83.0063 C   0  0  0  0  0  0  0  0  0  0  0  0
   10.5973   57.5416   79.8415 C   0  0  0  0  0  0  0  0  0  0  0  0
   15.4230   56.0454   84.1684 O   0  0  0  0  0  0  0  0  0  0  0  0
  1  2  2  0
  1  3  1  0
  2  4  1  0
  1  5  1  0
  2  6  1  0
  6  7  1  0
  4  8  1  0
  5  9  1  0
  7  9  1  0
  3 10  2  0
  9 11  1  0
  4 12  2  0
 10 12  1  0
 11 13  1  0
M  END
>  <ID>  (1) 
conformer_0

$$$$
