
     RDKit          3D

 13 14  0  0  0  0  0  0  0  0999 V2000
   12.8481   56.3241   81.0555 C   0  0  0  0  0  0  0  0  0  0  0  0
   13.9861   55.9667   81.4937 C   0  0  0  0  0  0  0  0  0  0  0  0
   11.7137   55.5548   81.0843 O   0  0  0  0  0  0  0  0  0  0  0  0
   14.1299   54.8316   82.4224 C   0  0  0  0  0  0  0  0  0  0  0  0
   12.3791   57.6852   81.1336 C   0  0  0  0  0  0  0  0  0  0  0  0
   15.0738   56.8640   81.8534 C   0  0  0  0  0  0  0  0  0  0  0  0
   14.6516   55.1399   83.8431 C   0  0  0  0  0  0  0  0  0  0  0  0
   11.2813   58.1125   80.6535 C   0  0  0  0  0  0  0  0  0  0  0  0
   10.5136   55.9094   80.6117 C   0  0  0  0  0  0  0  0  0  0  0  0
   15.8575   56.6910   82.8769 C   0  0  0  0  0  0  0  0  0  0  0  0
   10.2685   57.1616   80.4617 C   0  0  0  0  0  0  0  0  0  0  0  0
   15.7460   55.8743   83.8532 C   0  0  0  0  0  0  0  0  0  0  0  0
   10.8511   59.2484   81.4808 O   0  0  0  0  0  0  0  0  0  0  0  0
  1  2  1  0
  1  3  1  0
  2  4  1  0
  1  5  2  0
  2  6  1  0
  4  7  1  0
  5  8  1  0
  3  9  1  0
  6 10  1  0
  8 11  1  0
  9 11  1  0
  7 12  1  0
 10 12  1  0
  8 13  1  0
M  END
>  <ID>  (1) 
conformer_0

$$$$
