
     RDKit          3D

 12 12  0  0  0  0  0  0  0  0999 V2000
   14.4721   58.9375   79.1232 C   0  0  0  0  0  0  0  0  0  0  0  0
   15.3231   58.4597   79.8359 C   0  0  0  0  0  0  0  0  0  0  0  0
   15.0411   57.3910   80.4983 C   0  0  0  0  0  0  0  0  0  0  0  0
   13.1166   58.8521   79.4365 C   0  0  0  0  0  0  0  0  0  0  0  0
   12.6519   57.8849   80.3448 C   0  0  0  0  0  0  0  0  0  0  0  0
   16.0805   56.5760   81.2205 C   0  0  0  0  0  0  0  0  0  0  0  0
   13.6688   57.0774   80.8157 C   0  0  0  0  0  0  0  0  0  0  0  0
   13.3149   56.1214   81.6765 O   0  0  0  0  0  0  0  0  0  0  0  0
   11.2810   57.6600   80.4966 C   0  0  0  0  0  0  0  0  0  0  0  0
   16.4261   56.9584   82.3887 O   0  0  0  0  0  0  0  0  0  0  0  0
   10.7984   56.7454   80.7468 O   0  0  0  0  0  0  0  0  0  0  0  0
   10.4056   58.6938   80.2087 O   0  0  0  0  0  0  0  0  0  0  0  0
  1  2  1  0
  2  3  2  0
  1  4  2  0
  4  5  1  0
  3  6  1  0
  3  7  1  0
  5  7  2  0
  7  8  1  0
  5  9  1  0
  6 10  1  0
  9 11  2  0
  9 12  1  0
M  END
>  <ID>  (1) 
conformer_0

$$$$
