
     RDKit          3D

 12 13  0  0  0  0  0  0  0  0999 V2000
   15.2876   59.2002   78.8875 C   0  0  0  0  0  0  0  0  0  0  0  0
   15.8162   58.4640   79.7485 C   0  0  0  0  0  0  0  0  0  0  0  0
   15.1043   57.5477   80.3714 C   0  0  0  0  0  0  0  0  0  0  0  0
   13.8336   59.3421   78.9746 C   0  0  0  0  0  0  0  0  0  0  0  0
   13.0518   58.5044   79.6716 C   0  0  0  0  0  0  0  0  0  0  0  0
   13.7368   57.5728   80.4353 C   0  0  0  0  0  0  0  0  0  0  0  0
   15.8333   56.5291   81.3723 C   0  0  0  0  0  0  0  0  0  0  0  0
   13.0623   56.6267   81.3267 C   0  0  0  0  0  0  0  0  0  0  0  0
   11.6934   56.5663   81.2468 O   0  0  0  0  0  0  0  0  0  0  0  0
   15.0765   55.8031   82.0871 C   0  0  0  0  0  0  0  0  0  0  0  0
   13.7174   55.7548   82.1158 C   0  0  0  0  0  0  0  0  0  0  0  0
   10.9945   55.5515   81.7109 C   0  0  0  0  0  0  0  0  0  0  0  0
  1  2  1  0
  2  3  2  0
  1  4  2  0
  4  5  1  0
  3  6  1  0
  5  6  2  0
  3  7  1  0
  6  8  1  0
  8  9  1  0
  7 10  2  0
  8 11  2  0
 10 11  1  0
  9 12  1  0
M  END
>  <ID>  (1) 
conformer_0

$$$$
