
     RDKit          3D

 14 15  0  0  0  0  0  0  0  0999 V2000
   12.9412   56.2023   81.0921 C   0  0  0  0  0  0  0  0  0  0  0  0
   14.0777   55.9089   81.5537 C   0  0  0  0  0  0  0  0  0  0  0  0
   11.8432   55.4040   81.1367 C   0  0  0  0  0  0  0  0  0  0  0  0
   10.5628   55.8471   80.5433 C   0  0  0  0  0  0  0  0  0  0  0  0
   15.1654   56.8690   81.3844 C   0  0  0  0  0  0  0  0  0  0  0  0
   10.4083   57.1513   80.0950 C   0  0  0  0  0  0  0  0  0  0  0  0
   16.1006   56.9855   82.1992 O   0  0  0  0  0  0  0  0  0  0  0  0
   14.6015   58.1421   80.8708 C   0  0  0  0  0  0  0  0  0  0  0  0
   13.4978   58.2273   80.0307 C   0  0  0  0  0  0  0  0  0  0  0  0
   12.4611   57.3597   80.4114 C   0  0  0  0  0  0  0  0  0  0  0  0
   15.6624   59.0363   80.1742 O   0  0  0  0  0  0  0  0  0  0  0  0
   11.4597   57.8548   79.9693 N   0  0  0  0  0  0  0  0  0  0  0  0
   14.3318   54.9279   82.3064 O   0  0  0  0  0  0  0  0  0  0  0  0
   13.3011   59.5323   79.5578 O   0  0  0  0  0  0  0  0  0  0  0  0
  1  2  1  0
  1  3  2  0
  3  4  1  0
  2  5  1  0
  4  6  2  0
  5  7  1  0
  5  8  1  0
  8  9  1  0
  1 10  1  0
  9 10  1  0
  8 11  1  0
  6 12  1  0
 10 12  2  0
  2 13  2  0
  9 14  1  0
M  END
>  <ID>  (1) 
conformer_0

$$$$
