
     RDKit          3D

 11 11  0  0  0  0  0  0  0  0999 V2000
   15.5574   56.4766   83.0208 C   0  0  0  0  0  0  0  0  0  0  0  0
   14.8495   56.3972   81.9230 C   0  0  0  0  0  0  0  0  0  0  0  0
   14.9237   57.3588   80.9914 C   0  0  0  0  0  0  0  0  0  0  0  0
   13.7399   57.7315   80.3547 C   0  0  0  0  0  0  0  0  0  0  0  0
   13.7215   58.9664   79.6301 C   0  0  0  0  0  0  0  0  0  0  0  0
   16.1917   57.4467   83.3733 O   0  0  0  0  0  0  0  0  0  0  0  0
   12.6098   59.5107   79.1250 C   0  0  0  0  0  0  0  0  0  0  0  0
   11.3641   58.9389   79.4642 C   0  0  0  0  0  0  0  0  0  0  0  0
   12.5402   57.1569   80.6090 C   0  0  0  0  0  0  0  0  0  0  0  0
   11.3652   57.7184   80.0989 C   0  0  0  0  0  0  0  0  0  0  0  0
   15.4756   55.3520   83.8244 O   0  0  0  0  0  0  0  0  0  0  0  0
  1  2  1  0
  2  3  1  0
  3  4  1  0
  4  5  2  0
  1  6  1  0
  5  7  1  0
  7  8  2  0
  4  9  1  0
  8 10  1  0
  9 10  2  0
  1 11  2  0
M  END
>  <ID>  (1) 
conformer_0

$$$$
