
     RDKit          3D

 12 12  0  0  0  0  0  0  0  0999 V2000
   15.6512   56.0790   82.3314 C   0  0  0  0  0  0  0  0  0  0  0  0
   15.2713   55.9114   83.4195 C   0  0  0  0  0  0  0  0  0  0  0  0
   14.6150   56.0669   81.2065 C   0  0  0  0  0  0  0  0  0  0  0  0
   14.2096   57.2120   80.5627 C   0  0  0  0  0  0  0  0  0  0  0  0
   15.2061   57.9869   80.0865 C   0  0  0  0  0  0  0  0  0  0  0  0
   13.5771   55.0781   81.4540 C   0  0  0  0  0  0  0  0  0  0  0  0
   14.6582   59.1318   79.2614 C   0  0  0  0  0  0  0  0  0  0  0  0
   13.0782   54.6700   82.7571 C   0  0  0  0  0  0  0  0  0  0  0  0
   15.5624   59.9734   78.7645 O   0  0  0  0  0  0  0  0  0  0  0  0
   16.2169   55.9205   84.4191 O   0  0  0  0  0  0  0  0  0  0  0  0
   14.2088   54.8353   83.7303 C   0  0  0  0  0  0  0  0  0  0  0  0
   13.4576   59.2808   78.9438 O   0  0  0  0  0  0  0  0  0  0  0  0
  1  2  1  0
  1  3  1  0
  3  4  1  0
  4  5  2  3
  3  6  2  0
  5  7  1  0
  6  8  1  0
  7  9  1  0
  2 10  1  0
  2 11  1  0
  8 11  1  0
  7 12  2  0
M  END
>  <ID>  (1) 
conformer_0

$$$$
