
     RDKit          3D

 12 12  0  0  0  0  0  0  0  0999 V2000
   12.8481   56.3241   81.0555 C   0  0  0  0  0  0  0  0  0  0  0  0
   13.9861   55.9667   81.4937 C   0  0  0  0  0  0  0  0  0  0  0  0
   12.7100   57.6568   80.5349 C   0  0  0  0  0  0  0  0  0  0  0  0
   13.7954   58.4392   80.2999 C   0  0  0  0  0  0  0  0  0  0  0  0
   13.5859   59.6524   79.5763 O   0  0  0  0  0  0  0  0  0  0  0  0
   11.3517   58.0322   80.2772 O   0  0  0  0  0  0  0  0  0  0  0  0
   15.1806   56.7606   81.2104 C   0  0  0  0  0  0  0  0  0  0  0  0
   16.4174   56.1383   81.6058 O   0  0  0  0  0  0  0  0  0  0  0  0
   15.0701   58.0077   80.5028 C   0  0  0  0  0  0  0  0  0  0  0  0
   11.4739   55.6561   81.4503 C   0  0  0  0  0  0  0  0  0  0  0  0
   11.1268   54.7809   80.5494 O   0  0  0  0  0  0  0  0  0  0  0  0
   10.9141   55.5216   82.5699 O   0  0  0  0  0  0  0  0  0  0  0  0
  1  2  1  0
  1  3  2  0
  3  4  1  0
  4  5  1  0
  3  6  1  0
  2  7  2  0
  7  8  1  0
  4  9  2  0
  7  9  1  0
  1 10  1  0
 10 11  2  0
 10 12  1  0
M  END
>  <ID>  (1) 
conformer_0

$$$$
