
     RDKit          3D

 13 14  0  0  0  0  0  0  0  0999 V2000
   15.6512   56.0790   82.3314 C   0  0  0  0  0  0  0  0  0  0  0  0
   14.4111   56.1675   81.8035 C   0  0  0  0  0  0  0  0  0  0  0  0
   13.5297   55.1874   82.1879 C   0  0  0  0  0  0  0  0  0  0  0  0
   13.5922   54.7019   83.5043 C   0  0  0  0  0  0  0  0  0  0  0  0
   14.0244   57.1665   80.9770 C   0  0  0  0  0  0  0  0  0  0  0  0
   14.7113   54.7358   84.0835 C   0  0  0  0  0  0  0  0  0  0  0  0
   12.6695   57.3816   80.5004 C   0  0  0  0  0  0  0  0  0  0  0  0
   12.4091   58.6529   79.9594 C   0  0  0  0  0  0  0  0  0  0  0  0
   11.0259   58.8965   79.6079 N   0  0  0  0  0  0  0  0  0  0  0  0
   15.0313   58.0101   80.3397 C   0  0  0  0  0  0  0  0  0  0  0  0
   13.3233   59.4372   79.2566 C   0  0  0  0  0  0  0  0  0  0  0  0
   15.7960   55.4831   83.5467 C   0  0  0  0  0  0  0  0  0  0  0  0
   14.6751   59.0871   79.5039 C   0  0  0  0  0  0  0  0  0  0  0  0
  1  2  1  0
  2  3  1  0
  3  4  1  0
  2  5  2  3
  4  6  2  0
  5  7  1  0
  7  8  2  0
  8  9  1  0
  5 10  1  0
  8 11  1  0
  1 12  2  0
  6 12  1  0
 10 13  2  0
 11 13  2  0
M  END
>  <ID>  (1) 
conformer_0

$$$$
