
     RDKit          3D

 14 15  0  0  0  0  0  0  0  0999 V2000
   15.6512   56.0790   82.3314 C   0  0  0  0  0  0  0  0  0  0  0  0
   14.4111   56.1675   81.8035 C   0  0  0  0  0  0  0  0  0  0  0  0
   13.9674   57.2644   81.1329 C   0  0  0  0  0  0  0  0  0  0  0  0
   12.5558   57.2520   80.7568 C   0  0  0  0  0  0  0  0  0  0  0  0
   11.6476   56.3353   80.9498 C   0  0  0  0  0  0  0  0  0  0  0  0
   12.1488   55.2073   81.7422 C   0  0  0  0  0  0  0  0  0  0  0  0
   14.7190   58.4194   80.7455 C   0  0  0  0  0  0  0  0  0  0  0  0
   16.2038   57.0929   82.8288 O   0  0  0  0  0  0  0  0  0  0  0  0
   13.4512   55.1399   82.1822 C   0  0  0  0  0  0  0  0  0  0  0  0
   12.0700   58.5852   79.9284 C   0  0  0  0  0  0  0  0  0  0  0  0
   10.2228   56.3664   80.7470 O   0  0  0  0  0  0  0  0  0  0  0  0
   10.8559   58.5656   79.5564 O   0  0  0  0  0  0  0  0  0  0  0  0
   12.8768   59.6460   79.8721 N   0  0  0  0  0  0  0  0  0  0  0  0
   14.2343   59.4609   80.2778 C   0  0  0  0  0  0  0  0  0  0  0  0
  1  2  1  0
  2  3  2  0
  3  4  1  0
  4  5  2  0
  5  6  1  0
  3  7  1  0
  1  8  1  0
  2  9  1  0
  6  9  2  0
  4 10  1  0
  5 11  1  0
 10 12  2  0
 10 13  1  0
  7 14  1  0
 13 14  2  0
M  END
>  <ID>  (1) 
conformer_0

$$$$
