
     RDKit          3D

 13 14  0  0  0  0  0  0  0  0999 V2000
   15.9438   56.7355   83.7035 C   0  0  0  0  0  0  0  0  0  0  0  0
   15.3958   56.2373   82.5381 C   0  0  0  0  0  0  0  0  0  0  0  0
   14.2055   56.6606   82.1112 N   0  0  0  0  0  0  0  0  0  0  0  0
   13.0609   55.9025   82.1365 C   0  0  0  0  0  0  0  0  0  0  0  0
   14.0124   57.9612   81.6191 C   0  0  0  0  0  0  0  0  0  0  0  0
   11.8522   56.3687   81.6560 C   0  0  0  0  0  0  0  0  0  0  0  0
   10.7646   55.5016   81.7155 C   0  0  0  0  0  0  0  0  0  0  0  0
   11.8789   57.6019   80.8820 C   0  0  0  0  0  0  0  0  0  0  0  0
   12.9577   58.3954   80.9170 C   0  0  0  0  0  0  0  0  0  0  0  0
    9.7067   55.8518   80.9199 C   0  0  0  0  0  0  0  0  0  0  0  0
    8.5671   55.0348   80.8715 O   0  0  0  0  0  0  0  0  0  0  0  0
    9.6263   57.1123   80.2025 C   0  0  0  0  0  0  0  0  0  0  0  0
   10.7881   57.9492   80.2017 C   0  0  0  0  0  0  0  0  0  0  0  0
  1  2  1  0
  2  3  1  0
  3  4  1  0
  3  5  1  0
  4  6  1  0
  6  7  2  0
  6  8  1  0
  5  9  2  0
  8  9  1  0
  7 10  1  0
 10 11  1  0
 10 12  2  0
  8 13  2  0
 12 13  1  0
M  END
>  <ID>  (1) 
conformer_0

$$$$
