
     RDKit          3D

 11 11  0  0  0  0  0  0  0  0999 V2000
   15.7815   56.5650   82.4491 C   0  0  0  0  0  0  0  0  0  0  0  0
   14.5566   56.1959   81.9162 C   0  0  0  0  0  0  0  0  0  0  0  0
   13.8621   57.0738   81.2223 C   0  0  0  0  0  0  0  0  0  0  0  0
   15.9137   56.4951   83.8519 C   0  0  0  0  0  0  0  0  0  0  0  0
   12.4447   56.8139   81.0338 C   0  0  0  0  0  0  0  0  0  0  0  0
   14.0379   58.4232   81.4208 O   0  0  0  0  0  0  0  0  0  0  0  0
   13.7926   59.2876   80.2878 C   0  0  0  0  0  0  0  0  0  0  0  0
   12.3449   59.1909   79.9552 C   0  0  0  0  0  0  0  0  0  0  0  0
   11.8154   57.8285   79.9968 C   0  0  0  0  0  0  0  0  0  0  0  0
   14.6203   59.9520   79.7153 O   0  0  0  0  0  0  0  0  0  0  0  0
   10.3482   57.7651   79.9899 O   0  0  0  0  0  0  0  0  0  0  0  0
  1  2  1  0
  2  3  1  0
  1  4  1  0
  3  5  1  0
  3  6  1  0
  6  7  1  0
  7  8  1  0
  5  9  1  0
  8  9  1  0
  7 10  2  0
  9 11  1  0
M  END
>  <ID>  (1) 
conformer_0

$$$$
