
     RDKit          3D

 12 12  0  0  0  0  0  0  0  0999 V2000
   15.6512   56.0790   82.3314 C   0  0  0  0  0  0  0  0  0  0  0  0
   14.4111   56.1675   81.8035 C   0  0  0  0  0  0  0  0  0  0  0  0
   13.9674   57.2644   81.1329 C   0  0  0  0  0  0  0  0  0  0  0  0
   12.5558   57.2520   80.7568 C   0  0  0  0  0  0  0  0  0  0  0  0
   11.6476   56.3353   80.9498 C   0  0  0  0  0  0  0  0  0  0  0  0
   13.3152   55.0751   82.1962 C   0  0  0  0  0  0  0  0  0  0  0  0
   16.3692   56.9484   82.0717 O   0  0  0  0  0  0  0  0  0  0  0  0
   12.0612   55.2082   81.7395 C   0  0  0  0  0  0  0  0  0  0  0  0
   12.1106   58.4957   79.9530 C   0  0  0  0  0  0  0  0  0  0  0  0
   10.9117   58.5770   79.5879 O   0  0  0  0  0  0  0  0  0  0  0  0
   15.7584   55.3945   83.5148 O   0  0  0  0  0  0  0  0  0  0  0  0
   12.9432   59.4697   79.6719 O   0  0  0  0  0  0  0  0  0  0  0  0
  1  2  1  0
  2  3  2  0
  3  4  1  0
  4  5  2  0
  2  6  1  0
  1  7  2  0
  5  8  1  0
  6  8  2  0
  4  9  1  0
  9 10  2  0
  1 11  1  0
  9 12  1  0
M  END
>  <ID>  (1) 
conformer_0

$$$$
