
     RDKit          3D

 12 12  0  0  0  0  0  0  0  0999 V2000
   12.9412   56.2023   81.0921 C   0  0  0  0  0  0  0  0  0  0  0  0
   14.0777   55.9089   81.5537 C   0  0  0  0  0  0  0  0  0  0  0  0
   11.8432   55.4040   81.1367 C   0  0  0  0  0  0  0  0  0  0  0  0
   15.2583   56.6899   81.5523 C   0  0  0  0  0  0  0  0  0  0  0  0
   10.5441   55.8093   80.4976 C   0  0  0  0  0  0  0  0  0  0  0  0
   15.9750   56.8015   82.6132 O   0  0  0  0  0  0  0  0  0  0  0  0
   15.6777   57.0956   80.4140 C   0  0  0  0  0  0  0  0  0  0  0  0
   14.0159   54.8072   82.5244 O   0  0  0  0  0  0  0  0  0  0  0  0
   16.5911   58.2130   80.3282 O   0  0  0  0  0  0  0  0  0  0  0  0
   10.3180   57.1175   80.1791 C   0  0  0  0  0  0  0  0  0  0  0  0
   12.6511   57.6700   80.5793 C   0  0  0  0  0  0  0  0  0  0  0  0
   11.4293   57.9807   80.1283 C   0  0  0  0  0  0  0  0  0  0  0  0
  1  2  1  0
  1  3  2  0
  2  4  1  0
  3  5  1  0
  4  6  2  0
  4  7  1  0
  2  8  2  0
  7  9  1  0
  5 10  2  0
  1 11  1  0
 10 12  1  0
 11 12  2  0
M  END
>  <ID>  (1) 
conformer_0

$$$$
