
     RDKit          3D

 14 15  0  0  0  0  0  0  0  0999 V2000
   15.7815   56.5650   82.4491 C   0  0  0  0  0  0  0  0  0  0  0  0
   14.5566   56.1959   81.9162 C   0  0  0  0  0  0  0  0  0  0  0  0
   15.9268   56.5322   83.7904 C   0  0  0  0  0  0  0  0  0  0  0  0
   14.0830   56.4983   80.5562 C   0  0  0  0  0  0  0  0  0  0  0  0
   13.6911   55.3420   82.5899 C   0  0  0  0  0  0  0  0  0  0  0  0
   13.4171   57.8783   80.4523 C   0  0  0  0  0  0  0  0  0  0  0  0
   12.0275   57.8921   80.4148 C   0  0  0  0  0  0  0  0  0  0  0  0
   12.5155   54.7347   82.0088 C   0  0  0  0  0  0  0  0  0  0  0  0
   13.9919   55.0247   83.9340 C   0  0  0  0  0  0  0  0  0  0  0  0
   11.3350   56.7970   80.6677 O   0  0  0  0  0  0  0  0  0  0  0  0
   15.1067   55.5697   84.4886 N   0  0  0  0  0  0  0  0  0  0  0  0
   11.2890   58.9127   80.0862 O   0  0  0  0  0  0  0  0  0  0  0  0
   13.7642   58.9018   81.4145 O   0  0  0  0  0  0  0  0  0  0  0  0
   11.3713   55.6406   81.8712 C   0  0  0  0  0  0  0  0  0  0  0  0
  1  2  1  0
  1  3  2  0
  2  4  1  0
  2  5  2  0
  4  6  1  0
  6  7  1  0
  5  8  1  0
  5  9  1  0
  7 10  1  0
  3 11  1  0
  9 11  2  0
  7 12  2  0
  6 13  1  0
  8 14  1  0
 10 14  1  0
M  END
>  <ID>  (1) 
conformer_0

$$$$
