
     RDKit          3D

 13 14  0  0  0  0  0  0  0  0999 V2000
   11.8407   59.1252   79.4785 C   0  0  0  0  0  0  0  0  0  0  0  0
   12.0748   58.0577   80.2056 C   0  0  0  0  0  0  0  0  0  0  0  0
   13.4662   57.7385   80.5663 C   0  0  0  0  0  0  0  0  0  0  0  0
   14.4923   58.4840   79.9768 C   0  0  0  0  0  0  0  0  0  0  0  0
   15.8789   58.0347   80.2072 C   0  0  0  0  0  0  0  0  0  0  0  0
   10.4815   59.3720   79.0987 N   0  0  0  0  0  0  0  0  0  0  0  0
   13.7660   56.7232   81.4277 C   0  0  0  0  0  0  0  0  0  0  0  0
   12.8629   59.7807   78.8044 N   0  0  0  0  0  0  0  0  0  0  0  0
   15.0715   56.3597   81.7513 C   0  0  0  0  0  0  0  0  0  0  0  0
   14.1335   59.5271   79.0814 C   0  0  0  0  0  0  0  0  0  0  0  0
   15.3128   55.3172   82.7115 O   0  0  0  0  0  0  0  0  0  0  0  0
   14.3649   55.0412   83.7100 C   0  0  0  0  0  0  0  0  0  0  0  0
   16.1868   56.9774   81.1309 C   0  0  0  0  0  0  0  0  0  0  0  0
  1  2  1  0
  2  3  2  0
  3  4  1  0
  4  5  1  0
  1  6  1  0
  3  7  1  0
  1  8  2  0
  7  9  2  0
  4 10  2  0
  8 10  1  0
  9 11  1  0
 11 12  1  0
  5 13  2  0
  9 13  1  0
M  END
>  <ID>  (1) 
conformer_0

$$$$
