
     RDKit          3D

 13 14  0  0  0  0  0  0  0  0999 V2000
   14.4721   58.9375   79.1232 C   0  0  0  0  0  0  0  0  0  0  0  0
   15.3231   58.4597   79.8359 C   0  0  0  0  0  0  0  0  0  0  0  0
   15.0438   57.3699   80.7224 C   0  0  0  0  0  0  0  0  0  0  0  0
   13.0405   58.7486   79.4636 C   0  0  0  0  0  0  0  0  0  0  0  0
   16.0347   56.6691   81.4173 C   0  0  0  0  0  0  0  0  0  0  0  0
   13.6888   57.1302   80.9241 C   0  0  0  0  0  0  0  0  0  0  0  0
   13.3219   56.0478   81.9053 C   0  0  0  0  0  0  0  0  0  0  0  0
   12.7019   57.8165   80.3065 C   0  0  0  0  0  0  0  0  0  0  0  0
   11.2924   57.5287   80.4737 C   0  0  0  0  0  0  0  0  0  0  0  0
   10.4107   57.9594   79.8200 O   0  0  0  0  0  0  0  0  0  0  0  0
   15.6424   55.8019   82.3900 C   0  0  0  0  0  0  0  0  0  0  0  0
   14.3052   55.4544   82.6144 C   0  0  0  0  0  0  0  0  0  0  0  0
   10.8588   56.7703   81.4389 O   0  0  0  0  0  0  0  0  0  0  0  0
  1  2  2  0
  2  3  1  0
  1  4  1  0
  3  5  1  0
  3  6  2  0
  6  7  1  0
  4  8  2  0
  6  8  1  0
  8  9  1  0
  9 10  2  0
  5 11  2  0
  7 12  2  0
 11 12  1  0
  9 13  1  0
M  END
>  <ID>  (1) 
conformer_0

$$$$
