
     RDKit          3D

 12 13  0  0  0  0  0  0  0  0999 V2000
   15.3720   58.3171   79.5840 C   0  0  0  0  0  0  0  0  0  0  0  0
   15.9100   57.5549   80.3393 C   0  0  0  0  0  0  0  0  0  0  0  0
   16.0829   59.3029   78.8974 O   0  0  0  0  0  0  0  0  0  0  0  0
   14.0784   58.5445   79.5577 O   0  0  0  0  0  0  0  0  0  0  0  0
   15.0766   56.8000   81.2256 C   0  0  0  0  0  0  0  0  0  0  0  0
   13.8076   56.3982   80.9043 C   0  0  0  0  0  0  0  0  0  0  0  0
   13.1558   57.5979   80.0050 C   0  0  0  0  0  0  0  0  0  0  0  0
   12.8692   55.6128   81.5812 C   0  0  0  0  0  0  0  0  0  0  0  0
   15.6324   55.8150   82.2446 C   0  0  0  0  0  0  0  0  0  0  0  0
   11.9000   57.8020   79.7942 O   0  0  0  0  0  0  0  0  0  0  0  0
   14.8413   55.6954   83.3305 C   0  0  0  0  0  0  0  0  0  0  0  0
   13.5188   54.9354   82.8086 C   0  0  0  0  0  0  0  0  0  0  0  0
  1  2  1  0
  1  3  2  0
  1  4  1  0
  2  5  1  0
  5  6  2  0
  4  7  1  0
  6  7  1  0
  6  8  1  0
  5  9  1  0
  7 10  2  0
  9 11  1  0
  8 12  1  0
 11 12  1  0
M  END
>  <ID>  (1) 
conformer_0

$$$$
