
     RDKit          3D

 13 13  0  0  0  0  0  0  0  0999 V2000
   12.8481   56.3241   81.0555 C   0  0  0  0  0  0  0  0  0  0  0  0
   12.9641   57.4321   80.4919 C   0  0  0  0  0  0  0  0  0  0  0  0
   13.9366   55.8251   81.7542 C   0  0  0  0  0  0  0  0  0  0  0  0
   13.8340   54.6212   82.5458 O   0  0  0  0  0  0  0  0  0  0  0  0
   13.2018   54.7795   83.7424 C   0  0  0  0  0  0  0  0  0  0  0  0
   14.1402   58.0979   80.2269 C   0  0  0  0  0  0  0  0  0  0  0  0
   15.2569   56.3765   81.5722 C   0  0  0  0  0  0  0  0  0  0  0  0
   11.7168   57.9290   79.7843 O   0  0  0  0  0  0  0  0  0  0  0  0
   10.5897   57.9086   80.1832 C   0  0  0  0  0  0  0  0  0  0  0  0
   15.3084   57.6935   80.6955 C   0  0  0  0  0  0  0  0  0  0  0  0
   14.2244   59.4548   79.4413 C   0  0  0  0  0  0  0  0  0  0  0  0
   14.5816   59.3039   78.2313 O   0  0  0  0  0  0  0  0  0  0  0  0
   13.6584   60.4998   79.9055 O   0  0  0  0  0  0  0  0  0  0  0  0
  1  2  1  0
  1  3  2  0
  3  4  1  0
  4  5  1  0
  2  6  2  0
  3  7  1  0
  2  8  1  0
  8  9  1  0
  6 10  1  0
  7 10  2  0
  6 11  1  0
 11 12  2  0
 11 13  1  0
M  END
>  <ID>  (1) 
conformer_0

$$$$
