
     RDKit          3D

 13 13  0  0  0  0  0  0  0  0999 V2000
   15.6512   56.0790   82.3314 C   0  0  0  0  0  0  0  0  0  0  0  0
   14.4111   56.1675   81.8035 C   0  0  0  0  0  0  0  0  0  0  0  0
   13.9674   57.2644   81.1329 C   0  0  0  0  0  0  0  0  0  0  0  0
   12.5558   57.2520   80.7568 C   0  0  0  0  0  0  0  0  0  0  0  0
   11.6476   56.3353   80.9498 C   0  0  0  0  0  0  0  0  0  0  0  0
   13.3152   55.0751   82.1962 C   0  0  0  0  0  0  0  0  0  0  0  0
   13.7141   54.0122   82.9126 O   0  0  0  0  0  0  0  0  0  0  0  0
   10.2742   56.4283   80.5147 C   0  0  0  0  0  0  0  0  0  0  0  0
   16.1493   57.0207   83.0047 O   0  0  0  0  0  0  0  0  0  0  0  0
   12.0317   55.2101   81.7250 C   0  0  0  0  0  0  0  0  0  0  0  0
   12.0873   58.5631   79.9471 C   0  0  0  0  0  0  0  0  0  0  0  0
   12.9288   59.4864   79.4610 O   0  0  0  0  0  0  0  0  0  0  0  0
   10.9305   58.4949   79.2913 O   0  0  0  0  0  0  0  0  0  0  0  0
  1  2  1  0
  2  3  2  0
  3  4  1  0
  4  5  2  0
  2  6  1  0
  6  7  1  0
  5  8  1  0
  1  9  1  0
  5 10  1  0
  6 10  2  0
  4 11  1  0
 11 12  1  0
 11 13  2  0
M  END
>  <ID>  (1) 
conformer_0

$$$$
