
     RDKit          3D

 13 14  0  0  0  0  0  0  0  0999 V2000
   14.7368   55.3353   83.9839 O   0  0  0  0  0  0  0  0  0  0  0  0
   15.2561   56.1414   83.0462 C   0  0  0  0  0  0  0  0  0  0  0  0
   14.5679   56.3076   81.8356 C   0  0  0  0  0  0  0  0  0  0  0  0
   16.4015   56.5057   83.2225 O   0  0  0  0  0  0  0  0  0  0  0  0
   14.8890   57.2758   80.9488 C   0  0  0  0  0  0  0  0  0  0  0  0
   13.8576   57.7816   80.1024 C   0  0  0  0  0  0  0  0  0  0  0  0
   14.1794   58.9378   79.2134 C   0  0  0  0  0  0  0  0  0  0  0  0
   13.5778   55.3638   81.5313 C   0  0  0  0  0  0  0  0  0  0  0  0
   13.2319   59.6820   78.8011 C   0  0  0  0  0  0  0  0  0  0  0  0
   12.6568   57.0958   80.1170 C   0  0  0  0  0  0  0  0  0  0  0  0
   12.4988   55.9455   80.7264 C   0  0  0  0  0  0  0  0  0  0  0  0
   11.6377   57.6692   79.2676 C   0  0  0  0  0  0  0  0  0  0  0  0
   11.8855   58.9695   78.7206 N   0  0  0  0  0  0  0  0  0  0  0  0
  1  2  1  0
  2  3  1  0
  2  4  2  0
  3  5  1  0
  5  6  2  0
  6  7  1  0
  3  8  2  0
  7  9  2  0
  6 10  1  0
  8 11  1  0
 10 11  2  0
 10 12  1  0
  9 13  1  0
 12 13  2  0
M  END
>  <ID>  (1) 
conformer_0

$$$$
