
     RDKit          3D

 14 15  0  0  0  0  0  0  0  0999 V2000
   11.8407   59.1252   79.4785 C   0  0  0  0  0  0  0  0  0  0  0  0
   12.0748   58.0577   80.2056 C   0  0  0  0  0  0  0  0  0  0  0  0
   13.4662   57.7385   80.5663 C   0  0  0  0  0  0  0  0  0  0  0  0
   14.4561   58.5156   80.0357 C   0  0  0  0  0  0  0  0  0  0  0  0
   15.8305   58.0550   80.3095 C   0  0  0  0  0  0  0  0  0  0  0  0
   10.4829   59.3761   79.0878 N   0  0  0  0  0  0  0  0  0  0  0  0
   11.0175   57.1494   80.6274 C   0  0  0  0  0  0  0  0  0  0  0  0
   14.2368   59.4776   79.0119 C   0  0  0  0  0  0  0  0  0  0  0  0
   16.6838   58.4969   79.5919 O   0  0  0  0  0  0  0  0  0  0  0  0
   12.8510   59.8837   78.7255 N   0  0  0  0  0  0  0  0  0  0  0  0
   13.7042   56.8116   81.5246 O   0  0  0  0  0  0  0  0  0  0  0  0
   14.9746   56.6308   81.9985 C   0  0  0  0  0  0  0  0  0  0  0  0
   15.1210   55.7136   83.1118 C   0  0  0  0  0  0  0  0  0  0  0  0
   16.0439   57.1136   81.2357 C   0  0  0  0  0  0  0  0  0  0  0  0
  1  2  1  0
  2  3  2  0
  3  4  1  0
  4  5  1  0
  1  6  1  0
  2  7  1  0
  4  8  2  0
  5  9  2  0
  1 10  2  0
  8 10  1  0
  3 11  1  0
 11 12  1  0
 12 13  1  0
  5 14  1  0
 12 14  2  0
M  END
>  <ID>  (1) 
conformer_0

$$$$
