
     RDKit          3D

 13 14  0  0  0  0  0  0  0  0999 V2000
   12.9412   56.2023   81.0921 C   0  0  0  0  0  0  0  0  0  0  0  0
   14.0777   55.9089   81.5537 C   0  0  0  0  0  0  0  0  0  0  0  0
   11.8432   55.4040   81.1367 C   0  0  0  0  0  0  0  0  0  0  0  0
   10.5628   55.8471   80.5433 C   0  0  0  0  0  0  0  0  0  0  0  0
   15.1654   56.8690   81.3844 C   0  0  0  0  0  0  0  0  0  0  0  0
   10.4083   57.1513   80.0950 C   0  0  0  0  0  0  0  0  0  0  0  0
   16.1006   56.9855   82.1992 O   0  0  0  0  0  0  0  0  0  0  0  0
   15.4080   57.3263   80.1334 C   0  0  0  0  0  0  0  0  0  0  0  0
   11.5616   57.9746   80.1350 C   0  0  0  0  0  0  0  0  0  0  0  0
   14.7435   58.6732   79.7724 C   0  0  0  0  0  0  0  0  0  0  0  0
   14.2607   54.9508   82.2781 O   0  0  0  0  0  0  0  0  0  0  0  0
   12.6707   57.5523   80.5822 C   0  0  0  0  0  0  0  0  0  0  0  0
   13.5065   58.8130   80.5217 C   0  0  0  0  0  0  0  0  0  0  0  0
  1  2  1  0
  1  3  2  0
  3  4  1  0
  2  5  1  0
  4  6  2  0
  5  7  1  0
  5  8  1  0
  6  9  1  0
  8 10  1  0
  2 11  2  0
  1 12  1  0
  9 12  2  0
 10 13  1  0
 12 13  1  0
M  END
>  <ID>  (1) 
conformer_0

$$$$
