
     RDKit          3D

 14 15  0  0  0  0  0  0  0  0999 V2000
   14.4721   58.9375   79.1232 C   0  0  0  0  0  0  0  0  0  0  0  0
   13.9258   58.1179   80.0494 C   0  0  0  0  0  0  0  0  0  0  0  0
   12.5995   57.7530   80.1238 C   0  0  0  0  0  0  0  0  0  0  0  0
   11.7294   58.5695   79.4493 C   0  0  0  0  0  0  0  0  0  0  0  0
   14.8490   57.4123   80.9857 C   0  0  0  0  0  0  0  0  0  0  0  0
   14.2248   56.6459   81.9593 C   0  0  0  0  0  0  0  0  0  0  0  0
   16.1321   57.5839   81.0157 O   0  0  0  0  0  0  0  0  0  0  0  0
   12.9878   56.1005   81.6036 C   0  0  0  0  0  0  0  0  0  0  0  0
   15.1082   55.8972   82.8988 C   0  0  0  0  0  0  0  0  0  0  0  0
   13.6761   59.7177   78.3913 C   0  0  0  0  0  0  0  0  0  0  0  0
   12.1356   56.7353   80.8345 N   0  0  0  0  0  0  0  0  0  0  0  0
   12.3009   59.5292   78.4802 N   0  0  0  0  0  0  0  0  0  0  0  0
   15.7942   56.5957   83.7290 O   0  0  0  0  0  0  0  0  0  0  0  0
   10.7602   56.5110   80.9103 C   0  0  0  0  0  0  0  0  0  0  0  0
  1  2  1  0
  2  3  2  0
  3  4  1  0
  2  5  1  0
  5  6  1  0
  5  7  2  0
  6  8  2  0
  6  9  1  0
  1 10  2  0
  3 11  1  0
  8 11  1  0
  4 12  2  0
 10 12  1  0
  9 13  2  0
 11 14  1  0
M  END
>  <ID>  (1) 
conformer_0

$$$$
