
     RDKit          3D

 12 12  0  0  0  0  0  0  0  0999 V2000
   12.9412   56.2023   81.0921 C   0  0  0  0  0  0  0  0  0  0  0  0
   14.0777   55.9089   81.5537 C   0  0  0  0  0  0  0  0  0  0  0  0
   11.8432   55.4040   81.1367 O   0  0  0  0  0  0  0  0  0  0  0  0
   12.7916   57.5192   80.6169 C   0  0  0  0  0  0  0  0  0  0  0  0
   11.4679   57.9170   79.9722 C   0  0  0  0  0  0  0  0  0  0  0  0
   10.5967   57.4818   80.1961 O   0  0  0  0  0  0  0  0  0  0  0  0
   15.1936   56.7702   81.6763 C   0  0  0  0  0  0  0  0  0  0  0  0
   15.0341   57.9655   81.1378 C   0  0  0  0  0  0  0  0  0  0  0  0
   16.2487   56.3021   82.5773 O   0  0  0  0  0  0  0  0  0  0  0  0
   11.5753   58.9097   79.0388 O   0  0  0  0  0  0  0  0  0  0  0  0
   16.2200   58.7995   81.2261 O   0  0  0  0  0  0  0  0  0  0  0  0
   13.9110   58.4484   80.5887 C   0  0  0  0  0  0  0  0  0  0  0  0
  1  2  1  0
  1  3  1  0
  1  4  2  0
  4  5  1  0
  5  6  2  0
  2  7  2  0
  7  8  1  0
  7  9  1  0
  5 10  1  0
  8 11  1  0
  4 12  1  0
  8 12  2  0
M  END
>  <ID>  (1) 
conformer_0

$$$$
