
     RDKit          3D

 14 15  0  0  0  0  0  0  0  0999 V2000
   14.4721   58.9375   79.1232 C   0  0  0  0  0  0  0  0  0  0  0  0
   15.3231   58.4597   79.8359 C   0  0  0  0  0  0  0  0  0  0  0  0
   16.6206   58.6225   79.6941 O   0  0  0  0  0  0  0  0  0  0  0  0
   15.0499   57.2786   80.6153 N   0  0  0  0  0  0  0  0  0  0  0  0
   14.6023   60.1943   78.4461 O   0  0  0  0  0  0  0  0  0  0  0  0
   13.7176   56.8854   80.7006 C   0  0  0  0  0  0  0  0  0  0  0  0
   13.1309   58.6820   79.5244 C   0  0  0  0  0  0  0  0  0  0  0  0
   16.0187   56.2944   81.1489 C   0  0  0  0  0  0  0  0  0  0  0  0
   13.4214   55.7464   81.4487 C   0  0  0  0  0  0  0  0  0  0  0  0
   12.1557   55.4639   81.7118 O   0  0  0  0  0  0  0  0  0  0  0  0
   12.0437   59.5103   78.8660 O   0  0  0  0  0  0  0  0  0  0  0  0
   12.6535   57.8010   80.2448 C   0  0  0  0  0  0  0  0  0  0  0  0
   14.4306   55.2250   82.3974 N   0  0  0  0  0  0  0  0  0  0  0  0
   15.5574   55.5846   82.2227 C   0  0  0  0  0  0  0  0  0  0  0  0
  1  2  1  0
  2  3  2  0
  2  4  1  0
  1  5  1  0
  4  6  1  0
  1  7  2  0
  4  8  1  0
  6  9  1  0
  9 10  2  0
  7 11  1  0
  6 12  2  0
  7 12  1  0
  9 13  1  0
  8 14  1  0
 13 14  2  0
M  END
>  <ID>  (1) 
conformer_0

$$$$
