
     RDKit          3D

  9  8  0  0  0  0  0  0  0  0999 V2000
   15.8040   56.7937   83.5667 C   0  0  0  0  0  0  0  0  0  0  0  0
   15.3963   56.2544   82.3690 C   0  0  0  0  0  0  0  0  0  0  0  0
   14.2132   56.7754   81.8126 C   0  0  0  0  0  0  0  0  0  0  0  0
   12.9886   56.1419   81.7058 C   0  0  0  0  0  0  0  0  0  0  0  0
   15.2664   56.3558   84.6455 O   0  0  0  0  0  0  0  0  0  0  0  0
   11.9639   56.9265   80.9516 C   0  0  0  0  0  0  0  0  0  0  0  0
   10.7178   56.2884   80.8722 O   0  0  0  0  0  0  0  0  0  0  0  0
   16.6513   57.7203   83.4789 O   0  0  0  0  0  0  0  0  0  0  0  0
   11.8773   58.2482   80.9607 O   0  0  0  0  0  0  0  0  0  0  0  0
  1  2  1  0
  2  3  1  0
  3  4  2  3
  1  5  1  0
  4  6  1  0
  6  7  1  0
  1  8  2  0
  6  9  2  0
M  END
>  <ID>  (1) 
conformer_0

$$$$
