
     RDKit          3D

  9  9  0  0  0  0  0  0  0  0999 V2000
   15.8741   57.9074   79.8443 C   0  0  0  0  0  0  0  0  0  0  0  0
   14.7064   57.5738   80.3535 C   0  0  0  0  0  0  0  0  0  0  0  0
   14.5397   56.4373   81.1312 C   0  0  0  0  0  0  0  0  0  0  0  0
   17.0260   57.2733   80.2403 C   0  0  0  0  0  0  0  0  0  0  0  0
   16.7019   56.0874   81.0155 C   0  0  0  0  0  0  0  0  0  0  0  0
   13.4909   58.3264   79.7946 C   0  0  0  0  0  0  0  0  0  0  0  0
   15.5126   55.8054   81.6021 C   0  0  0  0  0  0  0  0  0  0  0  0
   12.2223   57.9339   80.1785 C   0  0  0  0  0  0  0  0  0  0  0  0
   11.0692   58.5481   79.6416 C   0  0  0  0  0  0  0  0  0  0  0  0
  1  2  1  0
  2  3  2  0
  1  4  2  0
  4  5  1  0
  2  6  1  0
  3  7  1  0
  5  7  2  0
  6  8  2  3
  8  9  1  0
M  END
>  <ID>  (1) 
conformer_0

$$$$
