
     RDKit          3D

 11 11  0  0  0  0  0  0  0  0999 V2000
   15.6512   56.0790   82.3314 C   0  0  0  0  0  0  0  0  0  0  0  0
   15.2713   55.9114   83.4195 C   0  0  0  0  0  0  0  0  0  0  0  0
   14.6150   56.0669   81.2065 C   0  0  0  0  0  0  0  0  0  0  0  0
   14.2096   57.2120   80.5627 C   0  0  0  0  0  0  0  0  0  0  0  0
   15.2061   57.9869   80.0865 C   0  0  0  0  0  0  0  0  0  0  0  0
   13.5771   55.0781   81.4540 C   0  0  0  0  0  0  0  0  0  0  0  0
   14.6582   59.1318   79.2614 C   0  0  0  0  0  0  0  0  0  0  0  0
   15.5421   59.9950   78.7573 O   0  0  0  0  0  0  0  0  0  0  0  0
   13.3610   54.4633   82.7461 C   0  0  0  0  0  0  0  0  0  0  0  0
   13.4316   59.3280   79.0254 O   0  0  0  0  0  0  0  0  0  0  0  0
   14.3979   54.6755   83.6550 C   0  0  0  0  0  0  0  0  0  0  0  0
  1  2  1  0
  1  3  1  0
  3  4  1  0
  4  5  2  3
  3  6  2  0
  5  7  1  0
  7  8  2  0
  6  9  1  0
  7 10  1  0
  2 11  1  0
  9 11  1  0
M  END
>  <ID>  (1) 
conformer_0

$$$$
