
     RDKit          3D

 13 13  0  0  0  0  0  0  0  0999 V2000
   15.4893   55.6470   84.0258 O   0  0  0  0  0  0  0  0  0  0  0  0
   15.8576   56.6474   83.2560 C   0  0  0  0  0  0  0  0  0  0  0  0
   15.3094   56.4506   81.8276 C   0  0  0  0  0  0  0  0  0  0  0  0
   14.1649   57.0997   81.5008 C   0  0  0  0  0  0  0  0  0  0  0  0
   12.9812   56.5909   81.4403 C   0  0  0  0  0  0  0  0  0  0  0  0
   11.8333   57.3043   80.9418 C   0  0  0  0  0  0  0  0  0  0  0  0
   14.3706   58.4074   80.9834 C   0  0  0  0  0  0  0  0  0  0  0  0
   13.2755   59.1498   80.4977 C   0  0  0  0  0  0  0  0  0  0  0  0
   12.0504   58.6080   80.3666 C   0  0  0  0  0  0  0  0  0  0  0  0
   16.5158   57.5320   83.5837 O   0  0  0  0  0  0  0  0  0  0  0  0
   10.8100   59.4215   79.7635 C   0  0  0  0  0  0  0  0  0  0  0  0
   10.4869   60.3057   80.3913 O   0  0  0  0  0  0  0  0  0  0  0  0
   10.4837   59.0227   78.6167 O   0  0  0  0  0  0  0  0  0  0  0  0
  1  2  1  0
  2  3  1  0
  3  4  1  0
  4  5  2  0
  5  6  1  0
  4  7  1  0
  7  8  2  0
  6  9  2  0
  8  9  1  0
  2 10  2  0
  9 11  1  0
 11 12  2  0
 11 13  1  0
M  END
>  <ID>  (1) 
conformer_0

$$$$
