
     RDKit          3D

 12 12  0  0  0  0  0  0  0  0999 V2000
   12.8481   56.3241   81.0555 C   0  0  0  0  0  0  0  0  0  0  0  0
   12.9641   57.4321   80.4919 C   0  0  0  0  0  0  0  0  0  0  0  0
   14.1428   58.1343   80.2352 C   0  0  0  0  0  0  0  0  0  0  0  0
   13.9030   55.7459   81.7284 C   0  0  0  0  0  0  0  0  0  0  0  0
   15.1657   56.3195   81.5679 C   0  0  0  0  0  0  0  0  0  0  0  0
   15.2844   57.4165   80.8008 C   0  0  0  0  0  0  0  0  0  0  0  0
   11.7075   58.1482   79.7171 C   0  0  0  0  0  0  0  0  0  0  0  0
   14.3671   59.2180   79.3912 O   0  0  0  0  0  0  0  0  0  0  0  0
   10.5792   57.6863   79.9417 O   0  0  0  0  0  0  0  0  0  0  0  0
   16.3446   55.6834   82.3757 C   0  0  0  0  0  0  0  0  0  0  0  0
   15.9521   55.8773   83.8265 N   0  0  0  0  0  0  0  0  0  0  0  0
   11.8338   59.3161   79.2449 O   0  0  0  0  0  0  0  0  0  0  0  0
  1  2  1  0
  2  3  2  0
  1  4  2  0
  4  5  1  0
  3  6  1  0
  5  6  2  0
  2  7  1  0
  3  8  1  0
  7  9  2  0
  5 10  1  0
 10 11  1  0
  7 12  1  0
M  END
>  <ID>  (1) 
conformer_0

$$$$
