
     RDKit          3D

 12 13  0  0  0  0  0  0  0  0999 V2000
   10.6562   58.6963   79.5668 C   0  0  0  0  0  0  0  0  0  0  0  0
   11.8909   59.2229   79.5334 C   0  0  0  0  0  0  0  0  0  0  0  0
   13.0465   58.5384   79.8946 C   0  0  0  0  0  0  0  0  0  0  0  0
   14.3466   59.0171   79.6537 C   0  0  0  0  0  0  0  0  0  0  0  0
   10.5312   57.4522   80.1435 C   0  0  0  0  0  0  0  0  0  0  0  0
   15.3643   58.1892   80.1310 C   0  0  0  0  0  0  0  0  0  0  0  0
    9.2321   56.8457   80.2984 O   0  0  0  0  0  0  0  0  0  0  0  0
   11.6910   56.7494   80.6296 C   0  0  0  0  0  0  0  0  0  0  0  0
   12.9636   57.2893   80.4798 C   0  0  0  0  0  0  0  0  0  0  0  0
   13.9735   56.5633   80.9968 C   0  0  0  0  0  0  0  0  0  0  0  0
   16.7122   58.6489   79.8562 O   0  0  0  0  0  0  0  0  0  0  0  0
   15.2398   57.0290   80.8016 C   0  0  0  0  0  0  0  0  0  0  0  0
  1  2  1  0
  2  3  2  0
  3  4  1  0
  1  5  2  0
  4  6  2  0
  5  7  1  0
  5  8  1  0
  3  9  1  0
  8  9  2  0
  9 10  1  0
  6 11  1  0
  6 12  1  0
 10 12  2  0
M  END
>  <ID>  (1) 
conformer_0

$$$$
