
     RDKit          3D

 11 11  0  0  0  0  0  0  0  0999 V2000
   15.7815   56.5650   82.4491 C   0  0  0  0  0  0  0  0  0  0  0  0
   14.5566   56.1959   81.9162 C   0  0  0  0  0  0  0  0  0  0  0  0
   15.9268   56.5322   83.7904 C   0  0  0  0  0  0  0  0  0  0  0  0
   17.0136   57.1187   84.3510 F   0  0  0  0  0  0  0  0  0  0  0  0
   14.2432   56.3070   80.4597 C   0  0  0  0  0  0  0  0  0  0  0  0
   15.1682   55.6476   84.5242 C   0  0  0  0  0  0  0  0  0  0  0  0
   14.0442   55.0635   83.9394 C   0  0  0  0  0  0  0  0  0  0  0  0
   14.3714   57.7122   80.0831 C   0  0  0  0  0  0  0  0  0  0  0  0
   13.8608   55.2150   82.5627 C   0  0  0  0  0  0  0  0  0  0  0  0
   15.4761   58.2915   79.7355 O   0  0  0  0  0  0  0  0  0  0  0  0
   13.2334   58.4100   79.7921 O   0  0  0  0  0  0  0  0  0  0  0  0
  1  2  1  0
  1  3  2  0
  3  4  1  0
  2  5  1  0
  3  6  1  0
  6  7  2  0
  5  8  1  0
  2  9  2  0
  7  9  1  0
  8 10  2  0
  8 11  1  0
M  END
>  <ID>  (1) 
conformer_0

$$$$
