
     RDKit          3D

 11 11  0  0  0  0  0  0  0  0999 V2000
   11.8407   59.1252   79.4785 C   0  0  0  0  0  0  0  0  0  0  0  0
   12.0748   58.0577   80.2056 C   0  0  0  0  0  0  0  0  0  0  0  0
   13.4662   57.7385   80.5663 C   0  0  0  0  0  0  0  0  0  0  0  0
   14.4561   58.5156   80.0357 C   0  0  0  0  0  0  0  0  0  0  0  0
   15.8305   58.0550   80.3095 C   0  0  0  0  0  0  0  0  0  0  0  0
   14.1844   59.5912   79.1720 C   0  0  0  0  0  0  0  0  0  0  0  0
   11.0248   57.2386   80.6907 O   0  0  0  0  0  0  0  0  0  0  0  0
   15.2114   60.3185   78.6005 O   0  0  0  0  0  0  0  0  0  0  0  0
   10.4764   59.3553   79.0710 O   0  0  0  0  0  0  0  0  0  0  0  0
   12.8054   59.9148   78.8149 C   0  0  0  0  0  0  0  0  0  0  0  0
   16.1254   56.7342   80.1570 C   0  0  0  0  0  0  0  0  0  0  0  0
  1  2  1  0
  2  3  2  0
  3  4  1  0
  4  5  1  0
  4  6  2  0
  2  7  1  0
  6  8  1  0
  1  9  1  0
  1 10  2  0
  6 10  1  0
  5 11  1  0
M  END
>  <ID>  (1) 
conformer_0

$$$$
