
     RDKit          3D

 14 15  0  0  0  0  0  0  0  0999 V2000
   15.8741   57.9074   79.8443 C   0  0  0  0  0  0  0  0  0  0  0  0
   14.7064   57.5738   80.3535 C   0  0  0  0  0  0  0  0  0  0  0  0
   14.4252   56.4472   81.1241 C   0  0  0  0  0  0  0  0  0  0  0  0
   13.0980   55.9696   81.0245 C   0  0  0  0  0  0  0  0  0  0  0  0
   15.0937   56.1568   82.3107 C   0  0  0  0  0  0  0  0  0  0  0  0
   14.6789   55.2165   83.2031 C   0  0  0  0  0  0  0  0  0  0  0  0
   15.4587   54.8126   84.2491 N   0  0  0  0  0  0  0  0  0  0  0  0
   13.6916   58.4973   79.9971 C   0  0  0  0  0  0  0  0  0  0  0  0
   12.6483   54.9841   82.0441 C   0  0  0  0  0  0  0  0  0  0  0  0
   16.2416   58.8697   79.0514 C   0  0  0  0  0  0  0  0  0  0  0  0
   13.9357   59.5224   79.0925 C   0  0  0  0  0  0  0  0  0  0  0  0
   11.3765   54.1996   81.8042 O   0  0  0  0  0  0  0  0  0  0  0  0
   15.2923   59.7884   78.6446 C   0  0  0  0  0  0  0  0  0  0  0  0
   13.4299   54.4884   83.0868 C   0  0  0  0  0  0  0  0  0  0  0  0
  1  2  2  0
  2  3  1  0
  3  4  2  0
  3  5  1  0
  5  6  2  0
  6  7  1  0
  2  8  1  0
  4  9  1  0
  1 10  1  0
  8 11  2  0
  9 12  1  0
 10 13  2  0
 11 13  1  0
  6 14  1  0
  9 14  2  0
M  END
>  <ID>  (1) 
conformer_0

$$$$
