
     RDKit          3D

 12 13  0  0  0  0  0  0  0  0999 V2000
   15.3720   58.3171   79.5840 C   0  0  0  0  0  0  0  0  0  0  0  0
   15.9100   57.5549   80.3393 C   0  0  0  0  0  0  0  0  0  0  0  0
   15.1609   56.7435   81.2153 C   0  0  0  0  0  0  0  0  0  0  0  0
   13.8974   56.8109   81.2449 C   0  0  0  0  0  0  0  0  0  0  0  0
   13.2314   57.6852   80.3967 C   0  0  0  0  0  0  0  0  0  0  0  0
   13.9448   58.4974   79.4214 C   0  0  0  0  0  0  0  0  0  0  0  0
   12.9692   55.9632   82.0981 C   0  0  0  0  0  0  0  0  0  0  0  0
   11.8067   58.0037   80.2142 O   0  0  0  0  0  0  0  0  0  0  0  0
   15.7486   55.9756   82.3375 C   0  0  0  0  0  0  0  0  0  0  0  0
   13.5317   55.2825   83.0481 N   0  0  0  0  0  0  0  0  0  0  0  0
   14.9529   55.2274   83.1516 C   0  0  0  0  0  0  0  0  0  0  0  0
   11.2412   58.6690   79.2858 C   0  0  0  0  0  0  0  0  0  0  0  0
  1  2  1  0
  2  3  2  0
  3  4  1  0
  4  5  2  0
  1  6  2  0
  5  6  1  0
  4  7  1  0
  5  8  1  0
  3  9  1  0
  7 10  2  0
  9 11  2  0
 10 11  1  0
  8 12  1  0
M  END
>  <ID>  (1) 
conformer_0

$$$$
