
     RDKit          3D

 11 11  0  0  0  0  0  0  0  0999 V2000
   15.5574   56.4766   83.0208 C   0  0  0  0  0  0  0  0  0  0  0  0
   14.8495   56.3972   81.9230 C   0  0  0  0  0  0  0  0  0  0  0  0
   14.9237   57.3588   80.9914 C   0  0  0  0  0  0  0  0  0  0  0  0
   13.7748   55.3848   81.8622 C   0  0  0  0  0  0  0  0  0  0  0  0
   16.3912   57.2153   83.4084 O   0  0  0  0  0  0  0  0  0  0  0  0
   15.3599   55.3649   83.9142 O   0  0  0  0  0  0  0  0  0  0  0  0
   12.8264   55.5166   80.7571 C   0  0  0  0  0  0  0  0  0  0  0  0
   12.9113   56.6231   79.9255 C   0  0  0  0  0  0  0  0  0  0  0  0
   13.9213   57.5716   80.0625 C   0  0  0  0  0  0  0  0  0  0  0  0
   14.1111   58.6824   79.1299 O   0  0  0  0  0  0  0  0  0  0  0  0
   13.4699   59.8193   79.3520 C   0  0  0  0  0  0  0  0  0  0  0  0
  1  2  1  0
  2  3  2  0
  2  4  1  0
  1  5  1  0
  1  6  2  0
  4  7  2  0
  7  8  1  0
  3  9  1  0
  8  9  2  0
  9 10  1  0
 10 11  1  0
M  END
>  <ID>  (1) 
conformer_0

$$$$
