
     RDKit          3D

 13 14  0  0  0  0  0  0  0  0999 V2000
   14.4721   58.9375   79.1232 C   0  0  0  0  0  0  0  0  0  0  0  0
   15.3231   58.4597   79.8359 C   0  0  0  0  0  0  0  0  0  0  0  0
   16.6206   58.6225   79.6941 O   0  0  0  0  0  0  0  0  0  0  0  0
   15.0499   57.2786   80.6153 N   0  0  0  0  0  0  0  0  0  0  0  0
   14.6023   60.1943   78.4461 O   0  0  0  0  0  0  0  0  0  0  0  0
   13.7176   56.8854   80.7006 C   0  0  0  0  0  0  0  0  0  0  0  0
   13.1309   58.6820   79.5244 C   0  0  0  0  0  0  0  0  0  0  0  0
   16.0187   56.2944   81.1489 C   0  0  0  0  0  0  0  0  0  0  0  0
   13.4214   55.7464   81.4487 C   0  0  0  0  0  0  0  0  0  0  0  0
   12.7632   57.6585   80.1803 N   0  0  0  0  0  0  0  0  0  0  0  0
   14.5883   55.4686   82.3766 C   0  0  0  0  0  0  0  0  0  0  0  0
   15.7801   56.2714   82.5086 C   0  0  0  0  0  0  0  0  0  0  0  0
   16.1256   56.6315   83.5326 O   0  0  0  0  0  0  0  0  0  0  0  0
  1  2  1  0
  2  3  2  0
  2  4  1  0
  1  5  1  0
  4  6  1  0
  1  7  2  0
  4  8  1  0
  6  9  1  0
  6 10  2  0
  7 10  1  0
  9 11  1  0
  8 12  1  0
 11 12  1  0
 12 13  2  0
M  END
>  <ID>  (1) 
conformer_0

$$$$
