
     RDKit          3D

 14 14  0  0  0  0  0  0  0  0999 V2000
   12.9412   56.2023   81.0921 C   0  0  0  0  0  0  0  0  0  0  0  0
   14.0777   55.9089   81.5537 C   0  0  0  0  0  0  0  0  0  0  0  0
   11.8432   55.4040   81.1367 C   0  0  0  0  0  0  0  0  0  0  0  0
   12.7686   57.5550   80.5811 C   0  0  0  0  0  0  0  0  0  0  0  0
   14.6948   56.2667   82.7487 C   0  0  0  0  0  0  0  0  0  0  0  0
   14.3063   55.6118   83.8598 O   0  0  0  0  0  0  0  0  0  0  0  0
   15.9114   56.8915   82.8768 O   0  0  0  0  0  0  0  0  0  0  0  0
   11.4510   57.9208   80.0598 C   0  0  0  0  0  0  0  0  0  0  0  0
   13.6820   58.5950   80.4242 C   0  0  0  0  0  0  0  0  0  0  0  0
   11.9966   54.0477   81.6743 C   0  0  0  0  0  0  0  0  0  0  0  0
   14.8614   58.6587   80.6224 O   0  0  0  0  0  0  0  0  0  0  0  0
   10.6068   55.8243   80.6702 C   0  0  0  0  0  0  0  0  0  0  0  0
   13.2357   59.7075   79.8121 O   0  0  0  0  0  0  0  0  0  0  0  0
   10.3933   57.0319   80.2456 C   0  0  0  0  0  0  0  0  0  0  0  0
  1  2  1  0
  1  3  2  0
  1  4  1  0
  2  5  1  0
  5  6  2  0
  5  7  1  0
  4  8  2  0
  4  9  1  0
  3 10  1  0
  9 11  2  0
  3 12  1  0
  9 13  1  0
  8 14  1  0
 12 14  2  0
M  END
>  <ID>  (1) 
conformer_0

$$$$
