
     RDKit          3D

 13 14  0  0  0  0  0  0  0  0999 V2000
   11.8407   59.1252   79.4785 C   0  0  0  0  0  0  0  0  0  0  0  0
   12.0748   58.0577   80.2056 C   0  0  0  0  0  0  0  0  0  0  0  0
   13.4662   57.7385   80.5663 C   0  0  0  0  0  0  0  0  0  0  0  0
   14.4561   58.5156   80.0357 C   0  0  0  0  0  0  0  0  0  0  0  0
   11.0101   57.1707   80.6131 C   0  0  0  0  0  0  0  0  0  0  0  0
   13.8570   56.4625   81.1611 C   0  0  0  0  0  0  0  0  0  0  0  0
   12.7194   55.6373   81.6225 C   0  0  0  0  0  0  0  0  0  0  0  0
   15.2243   55.9997   81.5918 C   0  0  0  0  0  0  0  0  0  0  0  0
   11.3623   56.0002   81.2330 N   0  0  0  0  0  0  0  0  0  0  0  0
    9.7112   57.4079   80.2940 N   0  0  0  0  0  0  0  0  0  0  0  0
   15.9237   56.9451   82.2294 O   0  0  0  0  0  0  0  0  0  0  0  0
   12.8156   60.0063   79.0388 C   0  0  0  0  0  0  0  0  0  0  0  0
   14.2395   59.6287   79.3679 C   0  0  0  0  0  0  0  0  0  0  0  0
  1  2  1  0
  2  3  2  0
  3  4  1  0
  2  5  1  0
  3  6  1  0
  6  7  2  0
  6  8  1  0
  5  9  2  0
  7  9  1  0
  5 10  1  0
  8 11  1  0
  1 12  2  0
  4 13  2  0
 12 13  1  0
M  END
>  <ID>  (1) 
conformer_0

$$$$
