
     RDKit          3D

 13 14  0  0  0  0  0  0  0  0999 V2000
   15.9438   56.7355   83.7035 C   0  0  0  0  0  0  0  0  0  0  0  0
   15.3958   56.2373   82.5381 C   0  0  0  0  0  0  0  0  0  0  0  0
   15.7025   56.9073   81.4030 C   0  0  0  0  0  0  0  0  0  0  0  0
   14.4748   55.2394   82.5326 C   0  0  0  0  0  0  0  0  0  0  0  0
   14.1433   54.4950   83.6663 C   0  0  0  0  0  0  0  0  0  0  0  0
   13.6250   54.9668   81.3889 C   0  0  0  0  0  0  0  0  0  0  0  0
   12.4165   54.4700   81.5278 C   0  0  0  0  0  0  0  0  0  0  0  0
   14.6599   57.0623   80.4362 C   0  0  0  0  0  0  0  0  0  0  0  0
   13.5938   56.2485   80.5303 C   0  0  0  0  0  0  0  0  0  0  0  0
   12.5722   57.0679   80.6312 C   0  0  0  0  0  0  0  0  0  0  0  0
   14.9281   57.9622   79.3510 C   0  0  0  0  0  0  0  0  0  0  0  0
   12.5748   58.3715   80.4241 C   0  0  0  0  0  0  0  0  0  0  0  0
   13.7341   58.8913   79.6545 C   0  0  0  0  0  0  0  0  0  0  0  0
  1  2  1  0
  2  3  1  0
  2  4  2  0
  4  5  1  0
  4  6  1  0
  6  7  1  0
  3  8  2  0
  6  9  1  0
  8  9  1  0
  9 10  1  0
  8 11  1  0
 10 12  2  0
 11 13  2  0
 12 13  1  0
M  END
>  <ID>  (1) 
conformer_0

$$$$
