
     RDKit          3D

 11 11  0  0  0  0  0  0  0  0999 V2000
   15.6512   56.0790   82.3314 C   0  0  0  0  0  0  0  0  0  0  0  0
   14.4111   56.1675   81.8035 C   0  0  0  0  0  0  0  0  0  0  0  0
   13.5297   55.1874   82.1879 C   0  0  0  0  0  0  0  0  0  0  0  0
   13.9924   57.0871   80.8265 C   0  0  0  0  0  0  0  0  0  0  0  0
   12.6511   57.2109   80.5253 C   0  0  0  0  0  0  0  0  0  0  0  0
   14.9584   58.0223   80.2515 C   0  0  0  0  0  0  0  0  0  0  0  0
   14.3990   59.0525   79.5065 C   0  0  0  0  0  0  0  0  0  0  0  0
   15.3792   59.9221   78.8039 C   0  0  0  0  0  0  0  0  0  0  0  0
   11.7573   56.4401   81.0189 C   0  0  0  0  0  0  0  0  0  0  0  0
   12.1104   55.2570   81.8884 C   0  0  0  0  0  0  0  0  0  0  0  0
   16.0301   56.9408   83.2881 O   0  0  0  0  0  0  0  0  0  0  0  0
  1  2  1  0
  2  3  2  0
  2  4  1  0
  4  5  2  0
  4  6  1  0
  6  7  2  3
  7  8  1  0
  5  9  1  0
  3 10  1  0
  9 10  2  0
  1 11  2  0
M  END
>  <ID>  (1) 
conformer_0

$$$$
