
     RDKit          3D

 14 16  0  0  0  0  0  0  0  0999 V2000
   15.2876   59.2002   78.8875 C   0  0  0  0  0  0  0  0  0  0  0  0
   15.8162   58.4640   79.7485 C   0  0  0  0  0  0  0  0  0  0  0  0
   15.1043   57.5477   80.3714 C   0  0  0  0  0  0  0  0  0  0  0  0
   13.6630   57.6127   80.2806 C   0  0  0  0  0  0  0  0  0  0  0  0
   15.5958   56.5813   81.3115 C   0  0  0  0  0  0  0  0  0  0  0  0
   13.0962   58.5431   79.4562 C   0  0  0  0  0  0  0  0  0  0  0  0
   12.7585   56.8440   81.1021 C   0  0  0  0  0  0  0  0  0  0  0  0
   11.6312   58.6644   79.3278 C   0  0  0  0  0  0  0  0  0  0  0  0
   13.1744   56.4001   82.2526 O   0  0  0  0  0  0  0  0  0  0  0  0
   14.6454   56.0470   82.2866 C   0  0  0  0  0  0  0  0  0  0  0  0
   11.4191   57.0856   81.1103 C   0  0  0  0  0  0  0  0  0  0  0  0
   15.1494   55.3449   83.4714 C   0  0  0  0  0  0  0  0  0  0  0  0
   10.8600   58.0089   80.1062 C   0  0  0  0  0  0  0  0  0  0  0  0
   13.9210   59.3322   78.6147 C   0  0  0  0  0  0  0  0  0  0  0  0
  1  2  1  0
  2  3  2  0
  3  4  1  0
  3  5  1  0
  4  6  2  0
  4  7  1  0
  6  8  1  0
  7  9  1  0
  5 10  2  0
  9 10  1  0
  7 11  2  0
 10 12  1  0
  8 13  2  0
 11 13  1  0
  1 14  2  0
  6 14  1  0
M  END
>  <ID>  (1) 
conformer_0

$$$$
