
     RDKit          3D

 13 14  0  0  0  0  0  0  0  0999 V2000
   15.7815   56.5650   82.4491 C   0  0  0  0  0  0  0  0  0  0  0  0
   15.3764   56.0789   83.5235 C   0  0  0  0  0  0  0  0  0  0  0  0
   14.8376   56.4999   81.3093 C   0  0  0  0  0  0  0  0  0  0  0  0
   13.5378   56.0306   81.6186 C   0  0  0  0  0  0  0  0  0  0  0  0
   15.0051   57.1467   80.0677 C   0  0  0  0  0  0  0  0  0  0  0  0
   14.0793   58.2815   79.8100 C   0  0  0  0  0  0  0  0  0  0  0  0
   14.3282   59.4040   79.0807 C   0  0  0  0  0  0  0  0  0  0  0  0
   14.2036   55.4151   83.7608 C   0  0  0  0  0  0  0  0  0  0  0  0
   12.6616   58.0938   79.9428 C   0  0  0  0  0  0  0  0  0  0  0  0
   13.4109   60.2350   78.6832 C   0  0  0  0  0  0  0  0  0  0  0  0
   11.8656   59.2082   79.4837 S   0  0  0  0  0  0  0  0  0  0  0  0
   13.2767   55.3091   82.8134 C   0  0  0  0  0  0  0  0  0  0  0  0
   12.2444   60.2951   78.8680 N   0  0  0  0  0  0  0  0  0  0  0  0
  1  2  1  0
  1  3  2  0
  3  4  1  0
  3  5  1  0
  5  6  1  0
  6  7  1  0
  2  8  2  0
  6  9  2  0
  7 10  2  0
  9 11  1  0
  4 12  2  0
  8 12  1  0
 10 13  1  0
 11 13  1  0
M  END
>  <ID>  (1) 
conformer_0

$$$$
