
     RDKit          3D

 13 13  0  0  0  0  0  0  0  0999 V2000
   12.8481   56.3241   81.0555 C   0  0  0  0  0  0  0  0  0  0  0  0
   13.9861   55.9667   81.4937 C   0  0  0  0  0  0  0  0  0  0  0  0
   12.7100   57.6568   80.5349 C   0  0  0  0  0  0  0  0  0  0  0  0
   13.7954   58.4392   80.2999 C   0  0  0  0  0  0  0  0  0  0  0  0
   13.5859   59.6524   79.5763 O   0  0  0  0  0  0  0  0  0  0  0  0
   11.3517   58.0322   80.2772 O   0  0  0  0  0  0  0  0  0  0  0  0
   15.1806   56.7606   81.2104 C   0  0  0  0  0  0  0  0  0  0  0  0
   15.0045   57.8857   80.5722 C   0  0  0  0  0  0  0  0  0  0  0  0
   14.1678   54.6301   82.2168 O   0  0  0  0  0  0  0  0  0  0  0  0
   11.5483   55.6140   81.4759 C   0  0  0  0  0  0  0  0  0  0  0  0
   16.2377   58.8486   80.1431 C   0  0  0  0  0  0  0  0  0  0  0  0
   16.4239   58.8922   78.9904 O   0  0  0  0  0  0  0  0  0  0  0  0
   14.4083   54.8796   83.6927 C   0  0  0  0  0  0  0  0  0  0  0  0
  1  2  1  0
  1  3  2  0
  3  4  1  0
  4  5  1  0
  3  6  1  0
  2  7  2  0
  4  8  2  0
  7  8  1  0
  2  9  1  0
  1 10  1  0
  8 11  1  0
 11 12  2  0
  9 13  1  0
M  END
>  <ID>  (1) 
conformer_0

$$$$
