
     RDKit          3D

 14 15  0  0  0  0  0  0  0  0999 V2000
   15.4893   55.6470   84.0258 O   0  0  0  0  0  0  0  0  0  0  0  0
   15.8576   56.6474   83.2560 C   0  0  0  0  0  0  0  0  0  0  0  0
   15.3094   56.4506   81.8276 C   0  0  0  0  0  0  0  0  0  0  0  0
   14.0158   55.8983   81.7126 C   0  0  0  0  0  0  0  0  0  0  0  0
   12.9466   56.6397   81.6764 C   0  0  0  0  0  0  0  0  0  0  0  0
   15.3845   57.7761   81.1721 O   0  0  0  0  0  0  0  0  0  0  0  0
   13.0491   57.7059   80.7463 C   0  0  0  0  0  0  0  0  0  0  0  0
   14.3014   58.2790   80.4693 C   0  0  0  0  0  0  0  0  0  0  0  0
   14.5312   59.2827   79.6557 C   0  0  0  0  0  0  0  0  0  0  0  0
   13.4704   59.7938   78.9402 C   0  0  0  0  0  0  0  0  0  0  0  0
   12.0041   58.1052   80.0542 C   0  0  0  0  0  0  0  0  0  0  0  0
   10.6684   57.6318   80.2322 C   0  0  0  0  0  0  0  0  0  0  0  0
   16.3462   57.6455   83.6716 O   0  0  0  0  0  0  0  0  0  0  0  0
   12.3040   59.1314   79.2352 C   0  0  0  0  0  0  0  0  0  0  0  0
  1  2  1  0
  2  3  1  0
  3  4  1  0
  4  5  1  0
  3  6  1  0
  5  7  1  0
  6  8  1  0
  7  8  1  0
  8  9  2  0
  9 10  1  0
  7 11  2  0
 11 12  1  0
  2 13  2  0
 10 14  2  0
 11 14  1  0
M  END
>  <ID>  (1) 
conformer_0

$$$$
