
     RDKit          3D

  9  9  0  0  0  0  0  0  0  0999 V2000
   15.8154   56.2897   84.0488 C   0  0  0  0  0  0  0  0  0  0  0  0
   15.3152   56.1029   82.7131 C   0  0  0  0  0  0  0  0  0  0  0  0
   15.7749   56.7982   81.7526 C   0  0  0  0  0  0  0  0  0  0  0  0
   14.1669   55.2451   82.6366 C   0  0  0  0  0  0  0  0  0  0  0  0
   13.4654   55.2278   81.4312 C   0  0  0  0  0  0  0  0  0  0  0  0
   13.9648   56.0177   80.3903 C   0  0  0  0  0  0  0  0  0  0  0  0
   15.0543   56.8129   80.5257 C   0  0  0  0  0  0  0  0  0  0  0  0
   15.6258   57.6677   79.4037 O   0  0  0  0  0  0  0  0  0  0  0  0
   15.0292   58.9352   79.4442 C   0  0  0  0  0  0  0  0  0  0  0  0
  1  2  1  0
  2  3  2  0
  2  4  1  0
  4  5  2  0
  5  6  1  0
  3  7  1  0
  6  7  2  0
  7  8  1  0
  8  9  1  0
M  END
>  <ID>  (1) 
conformer_0

$$$$
