
     RDKit          3D

 11 11  0  0  0  0  0  0  0  0999 V2000
   12.8481   56.3241   81.0555 C   0  0  0  0  0  0  0  0  0  0  0  0
   12.9641   57.4321   80.4919 C   0  0  0  0  0  0  0  0  0  0  0  0
   13.9604   58.1455   80.3360 C   0  0  0  0  0  0  0  0  0  0  0  0
   15.2450   57.6677   80.8136 C   0  0  0  0  0  0  0  0  0  0  0  0
   11.7192   57.9705   79.7149 O   0  0  0  0  0  0  0  0  0  0  0  0
   14.0032   55.7943   81.6959 C   0  0  0  0  0  0  0  0  0  0  0  0
   15.1997   56.5131   81.5495 C   0  0  0  0  0  0  0  0  0  0  0  0
   16.4740   56.0004   82.4123 C   0  0  0  0  0  0  0  0  0  0  0  0
   14.1143   59.3712   79.4511 O   0  0  0  0  0  0  0  0  0  0  0  0
   11.4634   55.5893   81.2627 C   0  0  0  0  0  0  0  0  0  0  0  0
   16.0993   56.1093   83.7725 C   0  0  0  0  0  0  0  0  0  0  0  0
  1  2  2  0
  2  3  1  0
  3  4  2  0
  2  5  1  0
  1  6  1  0
  4  7  1  0
  6  7  2  0
  7  8  1  0
  3  9  1  0
  1 10  1  0
  8 11  1  0
M  END
>  <ID>  (1) 
conformer_0

$$$$
