
     RDKit          3D

 12 13  0  0  0  0  0  0  0  0999 V2000
   15.7158   55.8251   83.8836 C   0  0  0  0  0  0  0  0  0  0  0  0
   15.1537   56.1512   82.5520 C   0  0  0  0  0  0  0  0  0  0  0  0
   13.8758   55.5451   82.1592 C   0  0  0  0  0  0  0  0  0  0  0  0
   13.1971   54.7921   83.0029 C   0  0  0  0  0  0  0  0  0  0  0  0
   13.7140   54.4278   84.2548 C   0  0  0  0  0  0  0  0  0  0  0  0
   13.3133   55.9221   80.8579 C   0  0  0  0  0  0  0  0  0  0  0  0
   15.8532   57.0454   81.6895 C   0  0  0  0  0  0  0  0  0  0  0  0
   16.7760   56.3896   84.2599 F   0  0  0  0  0  0  0  0  0  0  0  0
   14.0190   56.9568   80.1899 C   0  0  0  0  0  0  0  0  0  0  0  0
   15.3572   57.2587   80.5875 N   0  0  0  0  0  0  0  0  0  0  0  0
   15.0037   55.0483   84.5997 C   0  0  0  0  0  0  0  0  0  0  0  0
   13.5642   57.7996   79.3957 O   0  0  0  0  0  0  0  0  0  0  0  0
  1  2  1  0
  2  3  2  0
  3  4  1  0
  4  5  2  0
  3  6  1  0
  2  7  1  0
  1  8  1  0
  6  9  1  0
  7 10  2  0
  9 10  1  0
  1 11  2  0
  5 11  1  0
  9 12  2  0
M  END
>  <ID>  (1) 
conformer_0

$$$$
