
     RDKit          3D

 10 10  0  0  0  0  0  0  0  0999 V2000
   15.5574   56.4766   83.0208 C   0  0  0  0  0  0  0  0  0  0  0  0
   14.8495   56.3972   81.9230 C   0  0  0  0  0  0  0  0  0  0  0  0
   14.9237   57.3588   80.9914 C   0  0  0  0  0  0  0  0  0  0  0  0
   15.9671   57.7127   80.5165 O   0  0  0  0  0  0  0  0  0  0  0  0
   16.0413   57.4733   83.4503 O   0  0  0  0  0  0  0  0  0  0  0  0
   13.9758   55.2303   81.8439 C   0  0  0  0  0  0  0  0  0  0  0  0
   15.7343   55.2439   83.7864 O   0  0  0  0  0  0  0  0  0  0  0  0
   13.8502   57.4363   80.0659 N   0  0  0  0  0  0  0  0  0  0  0  0
   12.7845   55.4084   80.8841 C   0  0  0  0  0  0  0  0  0  0  0  0
   12.7829   56.6015   80.1096 C   0  0  0  0  0  0  0  0  0  0  0  0
  1  2  1  0
  2  3  1  0
  3  4  2  0
  1  5  1  0
  2  6  2  0
  1  7  2  0
  3  8  1  0
  6  9  1  0
  8 10  2  0
  9 10  1  0
M  END
>  <ID>  (1) 
conformer_0

$$$$
