
     RDKit          3D

 14 16  0  0  0  0  0  0  0  0999 V2000
   15.2876   59.2002   78.8875 C   0  0  0  0  0  0  0  0  0  0  0  0
   15.8162   58.4640   79.7485 C   0  0  0  0  0  0  0  0  0  0  0  0
   15.1043   57.5477   80.3714 C   0  0  0  0  0  0  0  0  0  0  0  0
   13.8336   59.3421   78.9746 C   0  0  0  0  0  0  0  0  0  0  0  0
   13.0518   58.5044   79.6716 C   0  0  0  0  0  0  0  0  0  0  0  0
   13.7368   57.5728   80.4353 C   0  0  0  0  0  0  0  0  0  0  0  0
   13.0656   56.8257   81.2674 C   0  0  0  0  0  0  0  0  0  0  0  0
   15.8557   56.6160   81.2073 C   0  0  0  0  0  0  0  0  0  0  0  0
   11.6429   58.6464   79.5882 C   0  0  0  0  0  0  0  0  0  0  0  0
   15.1601   56.2686   82.2856 C   0  0  0  0  0  0  0  0  0  0  0  0
   15.7895   55.4419   83.2580 O   0  0  0  0  0  0  0  0  0  0  0  0
   11.6793   56.5944   81.2555 C   0  0  0  0  0  0  0  0  0  0  0  0
   10.9482   57.6446   80.3421 C   0  0  0  0  0  0  0  0  0  0  0  0
   13.7839   55.8638   82.2004 C   0  0  0  0  0  0  0  0  0  0  0  0
  1  2  1  0
  2  3  2  0
  1  4  2  0
  4  5  1  0
  3  6  1  0
  5  6  2  0
  6  7  1  0
  3  8  1  0
  5  9  1  0
  8 10  1  0
 10 11  1  0
  7 12  2  0
  9 13  2  0
 12 13  1  0
  7 14  1  0
 10 14  1  0
M  END
>  <ID>  (1) 
conformer_0

$$$$
