
     RDKit          3D

 14 16  0  0  0  0  0  0  0  0999 V2000
   15.7815   56.5650   82.4491 C   0  0  0  0  0  0  0  0  0  0  0  0
   15.3764   56.0789   83.5235 C   0  0  0  0  0  0  0  0  0  0  0  0
   14.8376   56.4999   81.3093 C   0  0  0  0  0  0  0  0  0  0  0  0
   13.5378   56.0306   81.6186 C   0  0  0  0  0  0  0  0  0  0  0  0
   15.0051   57.1467   80.0677 C   0  0  0  0  0  0  0  0  0  0  0  0
   14.0793   58.2815   79.8100 C   0  0  0  0  0  0  0  0  0  0  0  0
   14.3282   59.4040   79.0807 C   0  0  0  0  0  0  0  0  0  0  0  0
   14.2036   55.4151   83.7608 C   0  0  0  0  0  0  0  0  0  0  0  0
   12.6616   58.0938   79.9428 C   0  0  0  0  0  0  0  0  0  0  0  0
   13.4109   60.2350   78.6832 C   0  0  0  0  0  0  0  0  0  0  0  0
   11.9748   59.7960   79.2327 N   0  0  0  0  0  0  0  0  0  0  0  0
   13.2910   55.3135   82.8306 C   0  0  0  0  0  0  0  0  0  0  0  0
   12.3892   56.7242   80.6702 C   0  0  0  0  0  0  0  0  0  0  0  0
   11.7500   58.7677   79.7621 C   0  0  0  0  0  0  0  0  0  0  0  0
  1  2  1  0
  1  3  2  0
  3  4  1  0
  3  5  1  0
  5  6  1  0
  6  7  1  0
  2  8  2  0
  6  9  2  0
  7 10  2  0
 10 11  1  0
  4 12  2  0
  8 12  1  0
  4 13  1  0
  9 13  1  0
  9 14  1  0
 11 14  2  0
M  END
>  <ID>  (1) 
conformer_0

$$$$
