
     RDKit          3D

 11 11  0  0  0  0  0  0  0  0999 V2000
   12.8481   56.3241   81.0555 C   0  0  0  0  0  0  0  0  0  0  0  0
   12.9641   57.4321   80.4919 C   0  0  0  0  0  0  0  0  0  0  0  0
   13.9604   58.1455   80.3360 C   0  0  0  0  0  0  0  0  0  0  0  0
   15.2450   57.6677   80.8136 C   0  0  0  0  0  0  0  0  0  0  0  0
   11.7192   57.9705   79.7149 O   0  0  0  0  0  0  0  0  0  0  0  0
   14.0032   55.7943   81.6959 C   0  0  0  0  0  0  0  0  0  0  0  0
   15.1997   56.5131   81.5495 C   0  0  0  0  0  0  0  0  0  0  0  0
   14.0720   59.3547   79.4824 O   0  0  0  0  0  0  0  0  0  0  0  0
   11.5947   55.6109   81.2161 O   0  0  0  0  0  0  0  0  0  0  0  0
   16.4202   55.9923   82.2452 C   0  0  0  0  0  0  0  0  0  0  0  0
   16.4183   56.6324   83.4467 O   0  0  0  0  0  0  0  0  0  0  0  0
  1  2  2  0
  2  3  1  0
  3  4  2  0
  2  5  1  0
  1  6  1  0
  4  7  1  0
  6  7  2  0
  3  8  1  0
  1  9  1  0
  7 10  1  0
 10 11  1  0
M  END
>  <ID>  (1) 
conformer_0

$$$$
