
     RDKit          3D

 14 15  0  0  0  0  0  0  0  0999 V2000
   14.4721   58.9375   79.1232 C   0  0  0  0  0  0  0  0  0  0  0  0
   15.3231   58.4597   79.8359 C   0  0  0  0  0  0  0  0  0  0  0  0
   16.6206   58.6225   79.6941 O   0  0  0  0  0  0  0  0  0  0  0  0
   15.0499   57.2786   80.6153 N   0  0  0  0  0  0  0  0  0  0  0  0
   14.6023   60.1943   78.4461 O   0  0  0  0  0  0  0  0  0  0  0  0
   13.7176   56.8854   80.7006 C   0  0  0  0  0  0  0  0  0  0  0  0
   13.1309   58.6820   79.5244 C   0  0  0  0  0  0  0  0  0  0  0  0
   16.0187   56.2944   81.1489 C   0  0  0  0  0  0  0  0  0  0  0  0
   12.0875   59.5264   78.8482 O   0  0  0  0  0  0  0  0  0  0  0  0
   13.4094   55.7616   81.5085 C   0  0  0  0  0  0  0  0  0  0  0  0
   15.5911   56.1344   82.5901 C   0  0  0  0  0  0  0  0  0  0  0  0
   14.3565   55.3159   82.5506 C   0  0  0  0  0  0  0  0  0  0  0  0
   12.7546   57.6450   80.2378 C   0  0  0  0  0  0  0  0  0  0  0  0
   11.3571   57.4531   80.7068 C   0  0  0  0  0  0  0  0  0  0  0  0
  1  2  1  0
  2  3  2  0
  2  4  1  0
  1  5  1  0
  4  6  1  0
  1  7  2  0
  4  8  1  0
  7  9  1  0
  6 10  1  0
  8 11  1  0
 10 12  1  0
 11 12  1  0
  6 13  2  0
  7 13  1  0
 13 14  1  0
M  END
>  <ID>  (1) 
conformer_0

$$$$
