
     RDKit          3D

 12 12  0  0  0  0  0  0  0  0999 V2000
   15.6512   56.0790   82.3314 C   0  0  0  0  0  0  0  0  0  0  0  0
   14.4111   56.1675   81.8035 C   0  0  0  0  0  0  0  0  0  0  0  0
   13.5297   55.1874   82.1879 C   0  0  0  0  0  0  0  0  0  0  0  0
   13.5922   54.7019   83.5043 C   0  0  0  0  0  0  0  0  0  0  0  0
   14.0244   57.1665   80.9770 C   0  0  0  0  0  0  0  0  0  0  0  0
   14.7113   54.7358   84.0835 C   0  0  0  0  0  0  0  0  0  0  0  0
   12.6695   57.3816   80.5004 C   0  0  0  0  0  0  0  0  0  0  0  0
   12.4091   58.6529   79.9594 C   0  0  0  0  0  0  0  0  0  0  0  0
   11.0259   58.8965   79.6079 C   0  0  0  0  0  0  0  0  0  0  0  0
   16.6215   56.9762   81.8687 O   0  0  0  0  0  0  0  0  0  0  0  0
   15.7895   55.5196   83.5855 C   0  0  0  0  0  0  0  0  0  0  0  0
   13.3543   59.7013   79.7927 C   0  0  0  0  0  0  0  0  0  0  0  0
  1  2  1  0
  2  3  1  0
  3  4  1  0
  2  5  2  3
  4  6  2  0
  5  7  1  0
  7  8  2  3
  8  9  1  0
  1 10  1  0
  1 11  2  0
  6 11  1  0
  8 12  1  0
M  END
>  <ID>  (1) 
conformer_0

$$$$
