
     RDKit          3D

 12 13  0  0  0  0  0  0  0  0999 V2000
   15.3720   58.3171   79.5840 C   0  0  0  0  0  0  0  0  0  0  0  0
   15.9100   57.5549   80.3393 C   0  0  0  0  0  0  0  0  0  0  0  0
   15.1979   56.7379   81.2339 C   0  0  0  0  0  0  0  0  0  0  0  0
   15.7818   55.9132   82.2152 C   0  0  0  0  0  0  0  0  0  0  0  0
   13.8609   56.7564   81.1424 C   0  0  0  0  0  0  0  0  0  0  0  0
   15.1072   55.8033   83.5112 C   0  0  0  0  0  0  0  0  0  0  0  0
   12.9494   55.9079   81.9372 C   0  0  0  0  0  0  0  0  0  0  0  0
   13.6562   55.1810   83.1008 N   0  0  0  0  0  0  0  0  0  0  0  0
   13.9943   58.3546   79.4505 C   0  0  0  0  0  0  0  0  0  0  0  0
   13.2032   57.6596   80.3098 C   0  0  0  0  0  0  0  0  0  0  0  0
   11.7034   56.0627   82.0921 O   0  0  0  0  0  0  0  0  0  0  0  0
   11.6928   57.8437   80.1810 O   0  0  0  0  0  0  0  0  0  0  0  0
  1  2  2  0
  2  3  1  0
  3  4  1  0
  3  5  2  0
  4  6  1  0
  5  7  1  0
  6  8  1  0
  7  8  1  0
  1  9  1  0
  5 10  1  0
  9 10  2  0
  7 11  2  0
 10 12  1  0
M  END
>  <ID>  (1) 
conformer_0

$$$$
