
     RDKit          3D

 13 13  0  0  0  0  0  0  0  0999 V2000
   12.9412   56.2023   81.0921 C   0  0  0  0  0  0  0  0  0  0  0  0
   14.0777   55.9089   81.5537 C   0  0  0  0  0  0  0  0  0  0  0  0
   11.8432   55.4040   81.1367 C   0  0  0  0  0  0  0  0  0  0  0  0
   12.7686   57.5550   80.5811 C   0  0  0  0  0  0  0  0  0  0  0  0
   14.6948   56.2667   82.7487 C   0  0  0  0  0  0  0  0  0  0  0  0
   14.3063   55.6118   83.8598 O   0  0  0  0  0  0  0  0  0  0  0  0
   11.4748   57.9123   80.0047 C   0  0  0  0  0  0  0  0  0  0  0  0
   13.6637   58.5921   80.3725 C   0  0  0  0  0  0  0  0  0  0  0  0
   14.8191   58.4068   79.9127 O   0  0  0  0  0  0  0  0  0  0  0  0
   10.5790   55.7574   80.6546 C   0  0  0  0  0  0  0  0  0  0  0  0
   15.7746   57.0382   82.7985 O   0  0  0  0  0  0  0  0  0  0  0  0
   13.3358   59.7989   80.5996 O   0  0  0  0  0  0  0  0  0  0  0  0
   10.4179   57.1414   80.0765 C   0  0  0  0  0  0  0  0  0  0  0  0
  1  2  1  0
  1  3  2  0
  1  4  1  0
  2  5  1  0
  5  6  2  0
  4  7  2  0
  4  8  1  0
  8  9  2  0
  3 10  1  0
  5 11  1  0
  8 12  1  0
  7 13  1  0
 10 13  2  0
M  END
>  <ID>  (1) 
conformer_0

$$$$
