
     RDKit          3D

 14 14  0  0  0  0  0  0  0  0999 V2000
   14.4721   58.9375   79.1232 C   0  0  0  0  0  0  0  0  0  0  0  0
   13.9258   58.1179   80.0494 C   0  0  0  0  0  0  0  0  0  0  0  0
   14.8550   57.2825   80.7398 C   0  0  0  0  0  0  0  0  0  0  0  0
   12.6129   57.6770   79.9883 C   0  0  0  0  0  0  0  0  0  0  0  0
   12.0860   56.8703   80.8655 C   0  0  0  0  0  0  0  0  0  0  0  0
   12.8772   56.1004   81.6874 C   0  0  0  0  0  0  0  0  0  0  0  0
   10.4957   56.7508   80.8197 C   0  0  0  0  0  0  0  0  0  0  0  0
    9.8622   57.5380   81.5090 O   0  0  0  0  0  0  0  0  0  0  0  0
   12.2894   55.1733   82.6008 O   0  0  0  0  0  0  0  0  0  0  0  0
   16.2070   57.4064   80.7865 O   0  0  0  0  0  0  0  0  0  0  0  0
   14.2568   56.2916   81.6590 C   0  0  0  0  0  0  0  0  0  0  0  0
   15.1027   55.6579   82.6023 O   0  0  0  0  0  0  0  0  0  0  0  0
   15.5983   56.1366   83.6967 C   0  0  0  0  0  0  0  0  0  0  0  0
   10.2191   56.1134   79.6003 O   0  0  0  0  0  0  0  0  0  0  0  0
  1  2  1  0
  2  3  1  0
  2  4  2  0
  4  5  1  0
  5  6  2  0
  5  7  1  0
  7  8  1  0
  6  9  1  0
  3 10  1  0
  3 11  2  0
  6 11  1  0
 11 12  1  0
 12 13  1  0
  7 14  2  0
M  END
>  <ID>  (1) 
conformer_0

$$$$
