
     RDKit          3D

 13 14  0  0  0  0  0  0  0  0999 V2000
   15.4893   55.6470   84.0258 O   0  0  0  0  0  0  0  0  0  0  0  0
   15.8576   56.6474   83.2560 C   0  0  0  0  0  0  0  0  0  0  0  0
   15.3094   56.4506   81.8276 C   0  0  0  0  0  0  0  0  0  0  0  0
   14.0158   55.8983   81.7126 C   0  0  0  0  0  0  0  0  0  0  0  0
   12.9466   56.6397   81.6764 C   0  0  0  0  0  0  0  0  0  0  0  0
   15.3845   57.7761   81.1721 O   0  0  0  0  0  0  0  0  0  0  0  0
   13.0491   57.7059   80.7463 C   0  0  0  0  0  0  0  0  0  0  0  0
   14.3014   58.2790   80.4693 C   0  0  0  0  0  0  0  0  0  0  0  0
   14.5312   59.2827   79.6557 C   0  0  0  0  0  0  0  0  0  0  0  0
   11.9454   58.2146   80.0773 C   0  0  0  0  0  0  0  0  0  0  0  0
   13.4496   59.8194   78.8306 C   0  0  0  0  0  0  0  0  0  0  0  0
   15.9797   57.7250   83.7084 O   0  0  0  0  0  0  0  0  0  0  0  0
   12.1825   59.2673   79.1442 C   0  0  0  0  0  0  0  0  0  0  0  0
  1  2  1  0
  2  3  1  0
  3  4  1  0
  4  5  1  0
  3  6  1  0
  5  7  1  0
  6  8  1  0
  7  8  1  0
  8  9  2  0
  7 10  2  0
  9 11  1  0
  2 12  2  0
 10 13  1  0
 11 13  2  0
M  END
>  <ID>  (1) 
conformer_0

$$$$
