
     RDKit          3D

 11 11  0  0  0  0  0  0  0  0999 V2000
   12.8481   56.3241   81.0555 C   0  0  0  0  0  0  0  0  0  0  0  0
   12.9641   57.4321   80.4919 C   0  0  0  0  0  0  0  0  0  0  0  0
   13.9366   55.8251   81.7542 C   0  0  0  0  0  0  0  0  0  0  0  0
   13.8340   54.6212   82.5458 O   0  0  0  0  0  0  0  0  0  0  0  0
   13.2018   54.7795   83.7424 C   0  0  0  0  0  0  0  0  0  0  0  0
   14.1402   58.0979   80.2269 C   0  0  0  0  0  0  0  0  0  0  0  0
   15.2569   56.3765   81.5722 C   0  0  0  0  0  0  0  0  0  0  0  0
   11.7168   57.9290   79.7843 O   0  0  0  0  0  0  0  0  0  0  0  0
   10.5897   57.9086   80.1832 C   0  0  0  0  0  0  0  0  0  0  0  0
   15.3002   57.5009   80.7932 C   0  0  0  0  0  0  0  0  0  0  0  0
   14.3315   59.4274   79.2989 Cl  0  0  0  0  0  0  0  0  0  0  0  0
  1  2  1  0
  1  3  2  0
  3  4  1  0
  4  5  1  0
  2  6  2  0
  3  7  1  0
  2  8  1  0
  8  9  1  0
  6 10  1  0
  7 10  2  0
  6 11  1  0
M  END
>  <ID>  (1) 
conformer_0

$$$$
