
     RDKit          3D

 14 15  0  0  0  0  0  0  0  0999 V2000
   15.8741   57.9074   79.8443 C   0  0  0  0  0  0  0  0  0  0  0  0
   14.7064   57.5738   80.3535 C   0  0  0  0  0  0  0  0  0  0  0  0
   13.5342   58.4011   79.9978 C   0  0  0  0  0  0  0  0  0  0  0  0
   12.2615   57.8956   80.2202 C   0  0  0  0  0  0  0  0  0  0  0  0
   16.0051   59.1150   79.1012 C   0  0  0  0  0  0  0  0  0  0  0  0
   11.1811   58.6119   79.7307 O   0  0  0  0  0  0  0  0  0  0  0  0
   11.8595   57.4328   81.4537 C   0  0  0  0  0  0  0  0  0  0  0  0
   14.5963   56.4470   81.2180 C   0  0  0  0  0  0  0  0  0  0  0  0
   12.3141   55.9558   81.8985 C   0  0  0  0  0  0  0  0  0  0  0  0
   13.7129   55.9124   82.1951 C   0  0  0  0  0  0  0  0  0  0  0  0
   13.7365   59.3488   79.0117 C   0  0  0  0  0  0  0  0  0  0  0  0
   15.9289   56.3223   82.1485 C   0  0  0  0  0  0  0  0  0  0  0  0
   14.9446   59.7541   78.6066 C   0  0  0  0  0  0  0  0  0  0  0  0
   15.8080   56.9382   83.3154 O   0  0  0  0  0  0  0  0  0  0  0  0
  1  2  2  0
  2  3  1  0
  3  4  1  0
  1  5  1  0
  4  6  1  0
  4  7  1  0
  2  8  1  0
  7  9  1  0
  8 10  1  0
  9 10  1  0
  3 11  2  0
  8 12  1  0
  5 13  2  0
 11 13  1  0
 12 14  1  0
M  END
>  <ID>  (1) 
conformer_0

$$$$
