
     RDKit          3D

 14 15  0  0  0  0  0  0  0  0999 V2000
   15.8741   57.9074   79.8443 C   0  0  0  0  0  0  0  0  0  0  0  0
   14.7064   57.5738   80.3535 C   0  0  0  0  0  0  0  0  0  0  0  0
   16.0914   59.0404   79.1559 C   0  0  0  0  0  0  0  0  0  0  0  0
   14.4143   56.3619   81.0731 C   0  0  0  0  0  0  0  0  0  0  0  0
   15.0474   59.8539   78.8457 C   0  0  0  0  0  0  0  0  0  0  0  0
   13.0371   56.1570   81.3573 C   0  0  0  0  0  0  0  0  0  0  0  0
   12.0573   56.9210   80.7255 C   0  0  0  0  0  0  0  0  0  0  0  0
   13.6804   58.3536   79.8088 C   0  0  0  0  0  0  0  0  0  0  0  0
   10.6840   56.5824   81.0091 O   0  0  0  0  0  0  0  0  0  0  0  0
   12.3712   58.0237   80.1020 N   0  0  0  0  0  0  0  0  0  0  0  0
   13.8381   59.4657   79.2051 C   0  0  0  0  0  0  0  0  0  0  0  0
   15.3554   55.7776   81.9585 O   0  0  0  0  0  0  0  0  0  0  0  0
   14.9035   55.2498   83.1273 C   0  0  0  0  0  0  0  0  0  0  0  0
   11.1986   58.7800   79.5245 C   0  0  0  0  0  0  0  0  0  0  0  0
  1  2  1  0
  1  3  2  0
  2  4  1  0
  3  5  1  0
  4  6  2  0
  6  7  1  0
  2  8  2  0
  7  9  2  0
  7 10  1  0
  8 10  1  0
  5 11  2  0
  8 11  1  0
  4 12  1  0
 12 13  1  0
 10 14  1  0
M  END
>  <ID>  (1) 
conformer_0

$$$$
