
     RDKit          3D

 12 12  0  0  0  0  0  0  0  0999 V2000
   15.7815   56.5650   82.4491 C   0  0  0  0  0  0  0  0  0  0  0  0
   15.3764   56.0789   83.5235 C   0  0  0  0  0  0  0  0  0  0  0  0
   14.9455   56.6591   81.2838 C   0  0  0  0  0  0  0  0  0  0  0  0
   14.1545   55.4739   83.6339 C   0  0  0  0  0  0  0  0  0  0  0  0
   13.6260   56.0520   81.3859 C   0  0  0  0  0  0  0  0  0  0  0  0
   12.6723   56.0687   80.2772 C   0  0  0  0  0  0  0  0  0  0  0  0
   15.4110   57.2586   80.0693 C   0  0  0  0  0  0  0  0  0  0  0  0
   11.4417   55.8292   80.8013 O   0  0  0  0  0  0  0  0  0  0  0  0
   13.3041   55.4719   82.5686 C   0  0  0  0  0  0  0  0  0  0  0  0
   15.3751   58.7369   80.1151 C   0  0  0  0  0  0  0  0  0  0  0  0
   14.7027   59.4195   79.0434 C   0  0  0  0  0  0  0  0  0  0  0  0
   13.2687   59.2127   79.0992 O   0  0  0  0  0  0  0  0  0  0  0  0
  1  2  2  0
  1  3  1  0
  2  4  1  0
  3  5  2  0
  5  6  1  0
  3  7  1  0
  6  8  1  0
  4  9  2  0
  5  9  1  0
  7 10  1  0
 10 11  1  0
 11 12  1  0
M  END
>  <ID>  (1) 
conformer_0

$$$$
