
     RDKit          3D

 14 15  0  0  0  0  0  0  0  0999 V2000
   10.6562   58.6963   79.5668 C   0  0  0  0  0  0  0  0  0  0  0  0
   11.8909   59.2229   79.5334 C   0  0  0  0  0  0  0  0  0  0  0  0
   13.0465   58.5384   79.8946 C   0  0  0  0  0  0  0  0  0  0  0  0
   12.8571   57.2523   80.3827 C   0  0  0  0  0  0  0  0  0  0  0  0
   11.6001   56.7676   80.5869 C   0  0  0  0  0  0  0  0  0  0  0  0
   11.5010   55.4045   81.1728 C   0  0  0  0  0  0  0  0  0  0  0  0
   12.4767   54.9453   81.8963 C   0  0  0  0  0  0  0  0  0  0  0  0
   13.3872   55.5978   82.3138 N   0  0  0  0  0  0  0  0  0  0  0  0
   10.4708   57.4710   80.1615 C   0  0  0  0  0  0  0  0  0  0  0  0
   13.9309   56.5605   81.2264 C   0  0  0  0  0  0  0  0  0  0  0  0
   14.9218   57.3722   82.1006 C   0  0  0  0  0  0  0  0  0  0  0  0
   15.3267   58.3218   81.5434 O   0  0  0  0  0  0  0  0  0  0  0  0
   15.4151   56.8604   83.1117 O   0  0  0  0  0  0  0  0  0  0  0  0
   12.3333   53.6902   82.4021 O   0  0  0  0  0  0  0  0  0  0  0  0
  1  2  1  0
  2  3  2  0
  3  4  1  0
  4  5  2  0
  5  6  1  0
  6  7  1  0
  7  8  1  0
  1  9  2  0
  5  9  1  0
  4 10  1  0
  8 10  1  0
 10 11  1  0
 11 12  2  0
 11 13  1  0
  7 14  2  0
M  END
>  <ID>  (1) 
conformer_0

$$$$
