
     RDKit          3D

 14 15  0  0  0  0  0  0  0  0999 V2000
   15.4893   55.6470   84.0258 O   0  0  0  0  0  0  0  0  0  0  0  0
   15.8576   56.6474   83.2560 C   0  0  0  0  0  0  0  0  0  0  0  0
   15.3094   56.4506   81.8276 C   0  0  0  0  0  0  0  0  0  0  0  0
   14.0158   55.8983   81.7126 C   0  0  0  0  0  0  0  0  0  0  0  0
   12.9466   56.6397   81.6764 C   0  0  0  0  0  0  0  0  0  0  0  0
   15.3845   57.7761   81.1721 O   0  0  0  0  0  0  0  0  0  0  0  0
   13.0491   57.7059   80.7463 C   0  0  0  0  0  0  0  0  0  0  0  0
   14.3014   58.2790   80.4693 C   0  0  0  0  0  0  0  0  0  0  0  0
   14.3733   59.7335   80.5446 C   0  0  0  0  0  0  0  0  0  0  0  0
   11.6996   55.9827   81.4957 O   0  0  0  0  0  0  0  0  0  0  0  0
   13.2300   60.2226   80.6907 O   0  0  0  0  0  0  0  0  0  0  0  0
   15.0579   60.4370   79.4797 O   0  0  0  0  0  0  0  0  0  0  0  0
   11.9921   58.7067   80.9451 O   0  0  0  0  0  0  0  0  0  0  0  0
   12.1398   59.8936   80.7829 C   0  0  0  0  0  0  0  0  0  0  0  0
  1  2  1  0
  2  3  1  0
  3  4  1  0
  4  5  1  0
  3  6  1  0
  5  7  1  0
  6  8  1  0
  7  8  1  0
  8  9  1  0
  5 10  1  0
  9 11  1  0
  9 12  1  0
  7 13  1  0
 11 14  1  0
 13 14  1  0
M  END
>  <ID>  (1) 
conformer_0

$$$$
