
     RDKit          3D

 12 12  0  0  0  0  0  0  0  0999 V2000
   15.6512   56.0790   82.3314 C   0  0  0  0  0  0  0  0  0  0  0  0
   14.4111   56.1675   81.8035 C   0  0  0  0  0  0  0  0  0  0  0  0
   13.9674   57.2644   81.1329 C   0  0  0  0  0  0  0  0  0  0  0  0
   12.5558   57.2520   80.7568 C   0  0  0  0  0  0  0  0  0  0  0  0
   11.6476   56.3353   80.9498 C   0  0  0  0  0  0  0  0  0  0  0  0
   12.1488   55.2073   81.7422 C   0  0  0  0  0  0  0  0  0  0  0  0
   13.3071   55.0327   82.1759 C   0  0  0  0  0  0  0  0  0  0  0  0
   14.8557   58.2899   80.7805 C   0  0  0  0  0  0  0  0  0  0  0  0
   16.0482   56.8469   83.3377 O   0  0  0  0  0  0  0  0  0  0  0  0
   15.4737   58.0872   79.6126 O   0  0  0  0  0  0  0  0  0  0  0  0
   12.0172   58.5674   79.9238 C   0  0  0  0  0  0  0  0  0  0  0  0
   10.7159   58.5185   79.6602 O   0  0  0  0  0  0  0  0  0  0  0  0
  1  2  1  0
  2  3  2  0
  3  4  1  0
  4  5  2  0
  5  6  1  0
  2  7  1  0
  6  7  2  0
  3  8  1  0
  1  9  1  0
  8 10  1  0
  4 11  1  0
 11 12  2  0
M  END
>  <ID>  (1) 
conformer_0

$$$$
