
     RDKit          3D

 13 13  0  0  0  0  0  0  0  0999 V2000
   15.5574   56.4766   83.0208 C   0  0  0  0  0  0  0  0  0  0  0  0
   14.8495   56.3972   81.9230 C   0  0  0  0  0  0  0  0  0  0  0  0
   16.3814   57.2966   83.3375 O   0  0  0  0  0  0  0  0  0  0  0  0
   15.0668   57.3586   81.0374 C   0  0  0  0  0  0  0  0  0  0  0  0
   13.7571   55.7574   82.0416 C   0  0  0  0  0  0  0  0  0  0  0  0
   15.9991   57.5285   80.2546 O   0  0  0  0  0  0  0  0  0  0  0  0
   12.6151   56.0595   81.1744 C   0  0  0  0  0  0  0  0  0  0  0  0
   15.2348   55.6078   84.0591 O   0  0  0  0  0  0  0  0  0  0  0  0
   14.0898   58.3296   80.7792 C   0  0  0  0  0  0  0  0  0  0  0  0
   12.7108   57.6312   80.7948 C   0  0  0  0  0  0  0  0  0  0  0  0
   11.5435   58.3623   80.5185 C   0  0  0  0  0  0  0  0  0  0  0  0
   10.5173   57.7181   80.6774 O   0  0  0  0  0  0  0  0  0  0  0  0
   11.6475   59.4373   79.8445 O   0  0  0  0  0  0  0  0  0  0  0  0
  1  2  1  0
  1  3  1  0
  2  4  1  0
  2  5  1  0
  4  6  2  0
  5  7  1  0
  1  8  2  0
  4  9  1  0
  7 10  1  0
  9 10  2  0
 10 11  1  0
 11 12  2  0
 11 13  1  0
M  END
>  <ID>  (1) 
conformer_0

$$$$
