
     RDKit          3D

 13 13  0  0  0  0  0  0  0  0999 V2000
   15.4893   55.6470   84.0258 N   0  0  0  0  0  0  0  0  0  0  0  0
   15.4184   56.2965   82.8849 C   0  0  0  0  0  0  0  0  0  0  0  0
   14.4776   56.2718   82.1386 C   0  0  0  0  0  0  0  0  0  0  0  0
   16.4093   56.9339   82.4343 O   0  0  0  0  0  0  0  0  0  0  0  0
   13.3333   55.2962   82.2490 C   0  0  0  0  0  0  0  0  0  0  0  0
   13.8614   57.3186   81.3149 C   0  0  0  0  0  0  0  0  0  0  0  0
   12.4995   56.9449   80.8061 C   0  0  0  0  0  0  0  0  0  0  0  0
   14.4833   58.4700   80.9500 O   0  0  0  0  0  0  0  0  0  0  0  0
   12.2180   55.6941   81.3965 C   0  0  0  0  0  0  0  0  0  0  0  0
   14.8114   58.6325   79.5988 C   0  0  0  0  0  0  0  0  0  0  0  0
   11.7356   57.7117   79.9567 C   0  0  0  0  0  0  0  0  0  0  0  0
   12.0855   58.8437   79.5807 O   0  0  0  0  0  0  0  0  0  0  0  0
   10.5392   57.3212   79.7219 O   0  0  0  0  0  0  0  0  0  0  0  0
  1  2  1  0
  2  3  1  0
  2  4  2  0
  3  5  1  0
  3  6  2  0
  6  7  1  0
  6  8  1  0
  5  9  1  0
  7  9  2  0
  8 10  1  0
  7 11  1  0
 11 12  1  0
 11 13  2  0
M  END
>  <ID>  (1) 
conformer_0

$$$$
