
     RDKit          3D

 13 14  0  0  0  0  0  0  0  0999 V2000
   14.4721   58.9375   79.1232 C   0  0  0  0  0  0  0  0  0  0  0  0
   13.9258   58.1179   80.0494 C   0  0  0  0  0  0  0  0  0  0  0  0
   12.5995   57.7530   80.1238 C   0  0  0  0  0  0  0  0  0  0  0  0
   14.9332   57.2916   80.7649 C   0  0  0  0  0  0  0  0  0  0  0  0
   11.7333   58.5971   79.4082 C   0  0  0  0  0  0  0  0  0  0  0  0
   11.9367   57.0093   81.1523 C   0  0  0  0  0  0  0  0  0  0  0  0
   12.2333   59.5620   78.5505 N   0  0  0  0  0  0  0  0  0  0  0  0
   14.2386   56.5861   81.9514 C   0  0  0  0  0  0  0  0  0  0  0  0
   12.9752   55.9873   81.5974 N   0  0  0  0  0  0  0  0  0  0  0  0
   13.5629   59.7173   78.4812 C   0  0  0  0  0  0  0  0  0  0  0  0
   15.2140   55.4288   82.4180 C   0  0  0  0  0  0  0  0  0  0  0  0
   11.1184   57.3900   82.0818 O   0  0  0  0  0  0  0  0  0  0  0  0
   15.9367   55.9580   83.5491 C   0  0  0  0  0  0  0  0  0  0  0  0
  1  2  1  0
  2  3  2  0
  2  4  1  0
  3  5  1  0
  3  6  1  0
  5  7  2  0
  4  8  1  0
  6  9  1  0
  8  9  1  0
  1 10  2  0
  7 10  1  0
  8 11  1  0
  6 12  2  0
 11 13  1  0
M  END
>  <ID>  (1) 
conformer_0

$$$$
