
     RDKit          3D

 12 12  0  0  0  0  0  0  0  0999 V2000
   12.8481   56.3241   81.0555 C   0  0  0  0  0  0  0  0  0  0  0  0
   12.9641   57.4321   80.4919 C   0  0  0  0  0  0  0  0  0  0  0  0
   13.9180   55.7866   81.7375 C   0  0  0  0  0  0  0  0  0  0  0  0
   15.1426   56.4378   81.7800 C   0  0  0  0  0  0  0  0  0  0  0  0
   15.2520   57.5440   81.1082 C   0  0  0  0  0  0  0  0  0  0  0  0
   16.2593   55.8080   82.6958 C   0  0  0  0  0  0  0  0  0  0  0  0
   14.2239   58.1050   80.3519 C   0  0  0  0  0  0  0  0  0  0  0  0
   14.4291   59.2743   79.5414 C   0  0  0  0  0  0  0  0  0  0  0  0
   13.4068   59.7578   78.9324 O   0  0  0  0  0  0  0  0  0  0  0  0
   15.5748   59.7413   79.3647 O   0  0  0  0  0  0  0  0  0  0  0  0
   11.8877   58.0271   79.6862 O   0  0  0  0  0  0  0  0  0  0  0  0
   15.7885   55.9620   84.0596 O   0  0  0  0  0  0  0  0  0  0  0  0
  1  2  2  0
  1  3  1  0
  3  4  2  0
  4  5  1  0
  4  6  1  0
  2  7  1  0
  5  7  2  0
  7  8  1  0
  8  9  2  0
  8 10  1  0
  2 11  1  0
  6 12  1  0
M  END
>  <ID>  (1) 
conformer_0

$$$$
