
     RDKit          3D

 23 26  0  0  0  0  0  0  0  0999 V2000
   30.9742    2.0793   -8.9752 O   0  0  0  0  0  0  0  0  0  0  0  0
   34.5865    4.5165   -5.7189 C   0  0  0  0  0  0  0  0  0  0  0  0
   31.3618    4.1368   -7.6744 C   0  0  0  0  0  0  0  0  0  0  0  0
   36.4999    4.5890   -4.6162 C   0  0  0  0  0  0  0  0  0  0  0  0
   30.6080    3.3161   -8.7815 C   0  0  0  0  0  0  0  0  0  0  0  0
   30.6409    2.4309   -4.0964 C   0  0  0  0  0  0  0  0  0  0  0  0
   35.2204    4.8985   -4.6081 N   0  0  0  0  0  0  0  0  0  0  0  0
   30.7396    5.4187   -7.5781 O   0  0  0  0  0  0  0  0  0  0  0  0
   30.7570    3.6393   -4.9156 N   0  0  0  0  0  0  0  0  0  0  0  0
   31.6806    1.9644   -6.2184 O   0  0  0  0  0  0  0  0  0  0  0  0
   37.5305    4.8324   -3.7500 N   0  0  0  0  0  0  0  0  0  0  0  0
   31.0851    1.3459   -4.9772 C   0  0  0  0  0  0  0  0  0  0  0  0
   35.1161    3.7884   -6.6672 N   0  0  0  0  0  0  0  0  0  0  0  0
   38.6243    4.2096   -4.2426 C   0  0  0  0  0  0  0  0  0  0  0  0
   31.1997    3.3286   -6.3070 C   0  0  0  0  0  0  0  0  0  0  0  0
   38.3410    3.5578   -5.3508 N   0  0  0  0  0  0  0  0  0  0  0  0
   32.0928    4.0640   -5.2305 C   0  0  0  0  0  0  0  0  0  0  0  0
   33.0754    4.9635   -6.0491 C   0  0  0  0  0  0  0  0  0  0  0  0
   29.8337    3.7803   -9.7923 N   0  0  0  0  0  0  0  0  0  0  0  0
   32.8616    4.5359   -7.5349 O   0  0  0  0  0  0  0  0  0  0  0  0
   37.0437    3.7967   -5.6641 C   0  0  0  0  0  0  0  0  0  0  0  0
   39.9065    4.2213   -3.7006 F   0  0  0  0  0  0  0  0  0  0  0  0
   36.2940    3.4017   -6.6997 C   0  0  0  0  0  0  0  0  0  0  0  0
  1  5  2  0
  2  7  1  0
  2 13  2  0
  2 18  1  0
  3  5  1  0
  3  8  1  0
  3 15  1  0
  3 20  1  0
  4  7  1  0
  4 11  1  0
  4 21  2  0
  5 19  1  0
  6  9  1  0
  6 12  1  0
  9 15  1  0
  9 17  1  0
 10 12  1  0
 10 15  1  0
 11 14  2  0
 13 23  1  0
 14 16  1  0
 14 22  1  0
 16 21  1  0
 17 18  1  0
 18 20  1  0
 21 23  1  0
M  END
>  <ID>  (1) 
conformer_0

$$$$
