
     RDKit          3D

 26 27  0  0  0  0  0  0  0  0999 V2000
   31.5224    5.1870   -4.3814 O   0  0  0  0  0  0  0  0  0  0  0  0
   34.1933    4.0264   -5.7278 C   0  0  0  0  0  0  0  0  0  0  0  0
   31.5969    4.4153   -6.7065 C   0  0  0  0  0  0  0  0  0  0  0  0
   37.6739    2.1606   -5.9801 O   0  0  0  0  0  0  0  0  0  0  0  0
   36.2237    4.9793   -4.2507 C   0  0  0  0  0  0  0  0  0  0  0  0
   39.9736    2.2451   -4.5373 Cl  0  0  0  0  0  0  0  0  0  0  0  0
   30.6888    1.8867   -9.5748 O   0  0  0  0  0  1  0  0  0  0  0  0
   36.4882    4.0132   -5.2185 C   0  0  0  0  0  0  0  0  0  0  0  0
   35.6307    3.4095   -7.3902 O   0  0  0  0  0  0  0  0  0  0  0  0
   38.8562    3.6225   -4.5887 C   0  0  0  0  0  0  0  0  0  0  0  0
   31.1461    3.1514   -7.5231 C   0  0  0  0  0  0  0  0  0  0  0  0
   30.6899    3.1131   -8.9812 N   0  0  0  0  0  0  0  0  0  0  0  0
   31.1552    5.5527   -7.2544 O   0  0  0  0  0  0  0  0  0  0  0  0
   29.7363    3.8360   -9.5601 O   0  0  0  0  0  1  0  0  0  0  0  0
   38.4808    5.8587   -3.6821 C   0  0  0  0  0  0  0  0  0  0  0  0
   32.1093    2.0663   -7.2815 O   0  0  0  0  0  0  0  0  0  0  0  0
   31.5572    4.1797   -5.2126 C   0  0  0  0  0  0  0  0  0  0  0  0
   39.2723    4.7659   -4.0350 C   0  0  0  0  0  0  0  0  0  0  0  0
   37.1571    5.8676   -3.7439 C   0  0  0  0  0  0  0  0  0  0  0  0
   35.4399    3.7503   -6.1066 C   0  0  0  0  0  0  0  0  0  0  0  0
   32.5488    4.3362   -3.8855 C   0  0  0  0  0  0  0  0  0  0  0  0
   30.8102    2.9435   -4.8199 C   0  0  0  0  0  0  0  0  0  0  0  0
   37.6913    3.2540   -5.2935 C   0  0  0  0  0  0  0  0  0  0  0  0
   33.8781    4.4987   -4.5050 C   0  0  0  0  0  0  0  0  0  0  0  0
   31.0284    2.6271   -3.4115 O   0  0  0  0  0  0  0  0  0  0  0  0
   34.9101    5.1004   -3.7842 C   0  0  0  0  0  0  0  0  0  0  0  0
  1 17  1  0
  1 21  1  0
  2 20  2  0
  2 24  1  0
  3 11  1  0
  3 13  1  0
  3 17  1  0
  4 23  1  0
  5  8  1  0
  5 19  1  0
  5 26  1  0
  6 10  1  0
  7 12  1  0
  8 20  1  0
  8 23  1  0
  9 20  1  0
 10 18  1  0
 10 23  1  0
 11 12  1  0
 11 16  2  0
 12 14  1  0
 15 18  1  0
 15 19  2  0
 17 22  1  0
 21 24  1  0
 22 25  1  0
 24 26  2  0
M  END
>  <ID>  (1) 
conformer_0

$$$$
