
     RDKit          3D

 25 28  0  0  0  0  0  0  0  0999 V2000
   36.1049    3.2198   -6.4455 N   0  0  0  0  0  0  0  0  0  0  0  0
   36.8026    4.5543   -4.7944 C   0  0  0  0  0  0  0  0  0  0  0  0
   34.6235    5.3542   -8.0861 O   0  0  0  0  0  0  0  0  0  0  0  0
   37.3533    2.8726   -6.1773 N   0  0  0  0  0  0  0  0  0  0  0  0
   29.9974    2.1570   -4.3169 C   0  0  0  0  0  0  0  0  0  0  0  0
   36.9799    5.3967   -3.6330 C   0  0  0  0  0  0  0  0  0  0  0  0
   38.0443    6.4167   -3.8538 C   0  0  0  0  0  0  0  0  0  0  0  0
   33.8663    4.5115   -7.3082 C   0  0  0  0  0  0  0  0  0  0  0  0
   39.1128    3.5022   -4.5385 C   0  0  0  0  0  0  0  0  0  0  0  0
   39.4420    5.8253   -3.7699 C   0  0  0  0  0  0  0  0  0  0  0  0
   39.4085    4.3476   -3.3790 C   0  0  0  0  0  0  0  0  0  0  0  0
   35.6325    4.1680   -5.5958 C   0  0  0  0  0  0  0  0  0  0  0  0
   30.0418    2.1674   -5.8524 C   0  0  0  0  0  0  0  0  0  0  0  0
   30.4008    3.0493   -8.6952 C   0  0  0  0  0  0  0  0  0  0  0  0
   32.0994    3.2078   -5.1424 C   0  0  0  0  0  0  0  0  0  0  0  0
   32.7280    3.7887   -7.8748 C   0  0  0  0  0  0  0  0  0  0  0  0
   31.0219    3.2299   -6.2222 C   0  0  0  0  0  0  0  0  0  0  0  0
   33.3071    4.8442   -3.5403 C   0  0  0  0  0  0  0  0  0  0  0  0
   34.2053    4.5597   -5.8597 C   0  0  0  0  0  0  0  0  0  0  0  0
   31.2064    3.8552   -7.6041 C   0  0  0  0  0  0  0  0  0  0  0  0
   29.9985    3.9189   -9.7685 O   0  0  0  0  0  0  0  0  0  0  0  0
   31.3172    2.8564   -3.8420 C   0  0  0  0  0  0  0  0  0  0  0  0
   37.8937    3.8015   -5.2927 C   0  0  0  0  0  0  0  0  0  0  0  0
   32.9677    4.4531   -5.0486 C   0  0  0  0  0  0  0  0  0  0  0  0
   30.7642    5.1706   -7.5266 O   0  0  0  0  0  0  0  0  0  0  0  0
  1  4  1  0
  1 12  1  0
  2  6  1  0
  2 12  1  0
  2 23  1  0
  3  8  1  0
  4 23  1  0
  5 13  1  0
  5 22  1  0
  6  7  1  0
  7 10  1  0
  8 16  1  0
  8 19  1  0
  9 11  1  0
  9 23  1  0
 10 11  1  0
 12 19  1  0
 13 17  1  0
 14 20  1  0
 14 21  1  0
 15 17  1  0
 15 22  1  0
 15 24  1  0
 16 20  1  0
 17 20  1  0
 18 24  1  0
 19 24  1  0
 20 25  1  0
M  END
>  <ID>  (1) 
conformer_0

$$$$
