
     RDKit          3D

 27 29  0  0  0  0  0  0  0  0999 V2000
   30.2785    2.1029   -4.0786 C   0  0  0  0  0  0  0  0  0  0  0  0
   38.2896    6.5105   -3.9772 C   0  0  0  0  0  0  0  0  0  0  0  0
   33.8909    3.6252   -4.7374 C   0  0  0  0  0  0  0  0  0  0  0  0
   36.1479    4.1010   -5.7504 N   0  0  0  0  0  0  0  0  0  0  0  0
   30.7429    3.4163   -4.4529 C   0  0  0  0  0  0  0  0  0  0  0  0
   30.9350    4.3557   -7.7123 C   0  0  0  0  0  0  0  0  0  0  0  0
   37.5228    5.8232   -4.7118 N   0  0  0  0  0  0  0  0  0  0  0  0
   36.4108    3.1104   -6.4929 C   0  0  0  0  0  0  0  0  0  0  0  0
   32.0677    4.7891   -5.6112 O   0  0  0  0  0  0  0  0  0  0  0  0
   34.6499    4.5733   -5.7459 C   0  0  0  0  0  0  0  0  0  0  0  0
   37.4944    2.4063   -6.1950 N   0  0  0  0  0  0  0  0  0  0  0  0
   31.1946    2.0506   -9.0128 O   0  0  0  0  0  1  0  0  0  0  0  0
   38.1867    2.9563   -5.2746 C   0  0  0  0  0  0  0  0  0  0  0  0
   39.1238    4.5445   -3.8493 C   0  0  0  0  0  0  0  0  0  0  0  0
   29.1648    2.3170   -7.5274 O   0  0  0  0  0  0  0  0  0  0  0  0
   32.3205    3.7512   -4.5734 C   0  0  0  0  0  0  0  0  0  0  0  0
   32.3395    4.2640   -6.9382 C   0  0  0  0  0  0  0  0  0  0  0  0
   39.2782    5.7652   -3.4448 N   0  0  0  0  0  0  0  0  0  0  0  0
   34.3930    4.1902   -3.4073 O   0  0  0  0  0  0  0  0  0  0  0  0
   31.0141    1.1079   -4.3125 O   0  0  0  0  0  0  0  0  0  0  0  0
   39.3001    2.4622   -4.5529 C   0  0  0  0  0  0  0  0  0  0  0  0
   33.8856    4.5678   -7.0449 C   0  0  0  0  0  0  0  0  0  0  0  0
   29.0838    2.0758   -3.6720 O   0  0  0  0  0  0  0  0  0  0  0  0
   29.4190    3.6040   -9.8350 O   0  0  0  0  0  0  0  0  0  0  0  0
   37.8143    4.4127   -4.8658 C   0  0  0  0  0  0  0  0  0  0  0  0
   39.8078    3.3998   -3.7645 N   0  0  0  0  0  0  0  0  0  0  0  0
   30.1729    3.0269   -8.5036 P   0  0  0  0  0  4  0  0  0  0  0  0
  1  5  1  0
  1 20  2  0
  1 23  1  0
  2  7  1  0
  2 18  1  0
  3 10  1  0
  3 16  1  0
  3 19  1  0
  4  8  1  0
  4 10  1  0
  5 16  1  0
  6 17  1  0
  6 27  1  0
  7 25  1  0
  8 11  1  0
  9 16  1  0
  9 17  1  0
 10 22  1  0
 11 13  1  0
 12 27  2  0
 13 21  1  0
 13 25  1  0
 14 18  1  0
 14 25  2  0
 14 26  1  0
 15 27  1  0
 17 22  1  0
 21 26  1  0
 24 27  1  0
M  END
>  <ID>  (1) 
conformer_0

$$$$
