
     RDKit          3D

 40 42  0  0  0  0  0  0  0  0999 V2000
   35.6842    4.2339   -3.1715 O   0  0  0  0  0  0  0  0  0  0  0  0
   28.8323    2.7043   -8.5966 C   0  0  0  0  0  0  0  0  0  0  0  0
   39.5971    1.1988   -6.0044 C   0  0  0  0  0  0  0  0  0  0  0  0
   27.9462    1.2108  -10.4195 C   0  0  0  0  0  0  0  0  0  0  0  0
   36.9734    4.1354   -7.5740 C   0  0  0  0  0  0  0  0  0  0  0  0
   30.2431    3.0789   -8.2042 C   0  0  0  0  0  0  0  0  0  0  0  0
   39.7037    6.8018   -2.5254 F   0  0  0  0  0  0  0  0  0  0  0  0
   30.2857    1.5680   -3.2256 O   0  0  0  0  0  0  0  0  0  0  0  0
   31.0522    2.0213   -4.0352 C   0  0  0  0  0  0  0  0  0  0  0  0
   35.1323    5.1077   -6.5650 C   0  0  0  0  0  0  0  0  0  0  0  0
   31.3285    4.5717   -6.4872 C   0  0  0  0  0  0  0  0  0  0  0  0
   37.3750    1.9144   -6.2189 O   0  0  0  0  0  0  0  0  0  0  0  0
   32.9478    3.6671   -3.7730 C   0  0  0  0  0  0  0  0  0  0  0  0
   40.9719    1.5468   -5.2526 C   0  0  0  0  0  0  0  0  0  0  0  0
   38.6894    3.3899   -4.7950 C   0  0  0  0  0  0  0  0  0  0  0  0
   28.9112    3.4587  -10.8417 O   0  0  0  0  0  0  0  0  0  0  0  0
   40.1912    2.5297   -3.0692 C   0  0  0  0  0  0  0  0  0  0  0  0
   33.8134    4.4068   -4.7290 C   0  0  0  0  0  0  0  0  0  0  0  0
   37.6150    4.4090   -4.9621 C   0  0  0  0  0  0  0  0  0  0  0  0
   38.5779    2.3162   -5.6931 C   0  0  0  0  0  0  0  0  0  0  0  0
   31.4623    3.4458   -3.8594 C   0  0  0  0  0  0  0  0  0  0  0  0
   31.1928    2.3234   -8.4128 O   0  0  0  0  0  0  0  0  0  0  0  0
   39.1946    4.6864   -2.7662 O   0  0  0  0  0  0  0  0  0  0  0  0
   37.8220    5.6420   -4.2785 C   0  0  0  0  0  0  0  0  0  0  0  0
   28.7054    2.4112  -10.1141 C   0  0  0  0  0  0  0  0  0  0  0  0
   31.0230    5.4185   -5.5672 O   0  0  0  0  0  0  0  0  0  0  0  0
   33.7572    4.9250   -6.0611 C   0  0  0  0  0  0  0  0  0  0  0  0
   30.3745    4.2518   -7.4607 N   0  0  0  0  0  0  0  0  0  0  0  0
   31.4629    1.4467   -5.0354 O   0  0  0  0  0  0  0  0  0  0  0  0
   35.4978    4.2671   -7.7421 C   0  0  0  0  0  0  0  0  0  0  0  0
   32.7537    4.5175   -7.0589 C   0  0  0  0  0  0  0  0  0  0  0  0
   39.5761    3.7074   -3.7385 C   0  0  0  0  0  0  0  0  0  0  0  0
   36.1653    4.6889   -5.5115 C   0  0  0  0  0  0  0  0  0  0  0  0
   37.3381    4.4554   -6.2518 O   0  0  0  0  0  0  0  0  0  0  0  0
   35.2630    4.4298   -4.3723 C   0  0  0  0  0  0  0  0  0  0  0  0
   37.5231    6.8229   -3.7242 F   0  0  0  0  0  0  0  0  0  0  0  0
   39.1012    5.9150   -3.4678 C   0  0  0  0  0  0  0  0  0  0  0  0
   32.9610    5.1630   -8.2328 O   0  0  0  0  0  0  0  0  0  0  0  0
   40.0385    6.0861   -4.5145 F   0  0  0  0  0  0  0  0  0  0  0  0
   40.7443    1.4850   -3.8535 C   0  0  0  0  0  0  0  0  0  0  0  0
  1 35  1  0
  2  6  1  0
  2 25  1  0
  3 14  1  0
  3 20  1  0
  4 25  1  0
  5 30  1  0
  6 22  2  0
  6 28  1  0
  7 37  1  0
  8  9  2  0
  9 21  1  0
  9 29  1  0
 10 27  1  0
 10 30  1  0
 10 33  1  0
 11 26  2  0
 11 28  1  0
 11 31  1  0
 12 20  1  0
 13 18  2  3
 13 21  1  0
 14 40  1  0
 15 19  1  0
 15 20  1  0
 15 32  1  0
 16 25  1  0
 17 32  1  0
 17 40  2  0
 18 27  1  0
 18 35  1  0
 19 24  1  0
 19 34  1  0
 23 32  1  0
 23 37  1  0
 24 36  1  0
 24 37  1  0
 27 31  1  0
 31 38  1  0
 33 34  1  0
 33 35  1  0
 37 39  1  0
M  END
>  <ID>  (1) 
conformer_0

$$$$
