
     RDKit          3D

 30 32  0  0  0  0  0  0  0  0999 V2000
   29.5473    0.8477   -3.5853 C   0  0  0  0  0  0  0  0  0  0  0  0
   36.7131    4.1895   -6.6566 C   0  0  0  0  0  0  0  0  0  0  0  0
   34.8542    4.8750   -5.2350 C   0  0  0  0  0  0  0  0  0  0  0  0
   29.9687    1.9169   -5.7276 N   0  0  0  0  0  0  0  0  0  0  0  0
   32.7700    4.7685   -3.7700 C   0  0  0  0  0  0  0  0  0  0  0  0
   37.5187    4.1935   -5.5914 C   0  0  0  0  0  0  0  0  0  0  0  0
   31.4904    3.9117   -4.0997 O   0  0  0  0  0  0  0  0  0  0  0  0
   37.4910    5.3866   -5.0125 C   0  0  0  0  0  0  0  0  0  0  0  0
   39.8842    1.7456   -4.3974 O   0  0  0  0  0  0  0  0  0  0  0  0
   33.5110    4.6835   -5.0156 C   0  0  0  0  0  0  0  0  0  0  0  0
   30.6016    3.0070   -6.6116 C   0  0  0  0  0  0  0  0  0  0  0  0
   30.1778    3.2142  -10.3800 O   0  0  0  0  0  0  0  0  0  0  0  0
   34.5776    4.4857   -7.5870 C   0  0  0  0  0  0  0  0  0  0  0  0
   32.7229    4.2529   -6.0766 C   0  0  0  0  0  0  0  0  0  0  0  0
   39.2343    2.9259   -4.4475 C   0  0  0  0  0  0  0  0  0  0  0  0
   29.8573    2.8669   -9.1470 C   0  0  0  0  0  0  0  0  0  0  0  0
   37.6921    1.8647   -5.9053 O   0  0  0  0  0  0  0  0  0  0  0  0
   30.5847    1.4697   -4.4575 C   0  0  0  0  0  0  0  0  0  0  0  0
   35.3986    4.5596   -6.4422 C   0  0  0  0  0  0  0  0  0  0  0  0
   38.1563    2.9053   -5.3757 C   0  0  0  0  0  0  0  0  0  0  0  0
   29.0586    1.8589   -9.0009 N   0  0  0  0  0  0  0  0  0  0  0  0
   33.2532    4.2949   -7.3525 C   0  0  0  0  0  0  0  0  0  0  0  0
   38.9210    6.4254   -3.4656 C   0  0  0  0  0  0  0  0  0  0  0  0
   39.6014    5.2387   -3.2792 C   0  0  0  0  0  0  0  0  0  0  0  0
   28.6754    1.1280   -2.7782 O   0  0  0  0  0  0  0  0  0  0  0  0
   30.5360    3.5696   -8.0510 C   0  0  0  0  0  0  0  0  0  0  0  0
   39.5241    4.0261   -3.6939 C   0  0  0  0  0  0  0  0  0  0  0  0
   37.8346    6.4945   -4.3790 C   0  0  0  0  0  0  0  0  0  0  0  0
   30.4659    4.9545   -8.0423 O   0  0  0  0  0  0  0  0  0  0  0  0
   31.3787    3.8127   -5.5896 C   0  0  0  0  0  0  0  0  0  0  0  0
  1 18  1  0
  1 25  2  0
  2  6  1  0
  2 19  2  3
  3 10  2  0
  3 19  1  0
  4 11  1  0
  4 18  1  0
  5  7  1  0
  5 10  1  0
  6  8  2  0
  6 20  1  0
  7 30  1  0
  8 28  2  0
  9 15  1  0
 10 14  1  0
 11 26  1  0
 11 30  1  0
 12 16  2  0
 13 19  1  0
 13 22  2  0
 14 22  1  0
 14 30  1  0
 15 20  1  0
 15 27  2  0
 16 21  1  0
 16 26  1  0
 17 20  2  0
 23 24  1  0
 23 28  1  0
 24 27  2  0
 26 29  1  0
M  END
>  <ID>  (1) 
conformer_0

$$$$
