
     RDKit          3D

 33 35  0  0  0  0  0  0  0  0999 V2000
   32.4782    3.7168   -4.2929 C   0  0  0  0  0  0  0  0  0  0  0  0
   37.1728    5.6985   -4.9655 N   0  0  0  0  0  0  0  0  0  0  0  0
   38.7607    2.4657   -5.1126 C   0  0  0  0  0  0  0  0  0  0  0  0
   30.4524    0.6258   -3.2744 O   0  0  0  0  0  1  0  0  0  0  0  0
   31.2848    4.0889   -6.9293 C   0  0  0  0  0  0  0  0  0  0  0  0
   29.0269    3.5487  -11.2006 O   0  0  0  0  0  0  0  0  0  0  0  0
   35.9282    3.5785   -6.8830 N   0  0  0  0  0  0  0  0  0  0  0  0
   37.5729    4.4370   -5.1309 C   0  0  0  0  0  0  0  0  0  0  0  0
   31.4679    2.0366   -8.5901 O   0  0  0  0  0  0  0  0  0  0  0  0
   36.9763    3.4575   -6.0444 C   0  0  0  0  0  0  0  0  0  0  0  0
   33.0762    5.4692   -5.6190 O   0  0  0  0  0  0  0  0  0  0  0  0
   38.9135    6.4290   -3.4881 C   0  0  0  0  0  0  0  0  0  0  0  0
   39.6972    5.4317   -3.2058 C   0  0  0  0  0  0  0  0  0  0  0  0
   34.7233    4.5630   -4.1943 O   0  0  0  0  0  0  0  0  0  0  0  0
   30.8342    5.3343   -7.4684 O   0  0  0  0  0  0  0  0  0  0  0  0
   33.9873    4.4266   -7.8111 O   0  0  0  0  0  0  0  0  0  0  0  0
   34.3539    4.7785   -5.5665 N   0  0  0  0  0  0  0  0  0  0  0  0
   34.7623    4.2324   -6.8519 C   0  0  0  0  0  0  0  0  0  0  0  0
   28.9989    2.5628   -3.8683 O   0  0  0  0  0  0  0  0  0  0  0  0
   33.4601    4.4307   -3.4573 C   0  0  0  0  0  0  0  0  0  0  0  0
   39.6129    1.6250   -4.8411 O   0  0  0  0  0  0  0  0  0  0  0  0
   37.7205    2.2969   -6.0331 N   0  0  0  0  0  0  0  0  0  0  0  0
   37.8430    6.5741   -4.2515 C   0  0  0  0  0  0  0  0  0  0  0  0
   30.7553    3.0495   -7.9642 C   0  0  0  0  0  0  0  0  0  0  0  0
   30.3758    1.9357   -4.0702 P   0  0  0  0  0  4  0  0  0  0  0  0
   31.5456    2.9121   -3.5847 O   0  0  0  0  0  0  0  0  0  0  0  0
   32.0527    4.4174   -5.5740 C   0  0  0  0  0  0  0  0  0  0  0  0
   39.6062    4.1548   -3.6190 N   0  0  0  0  0  0  0  0  0  0  0  0
   29.2371    1.5084  -10.3682 O   0  0  0  0  0  0  0  0  0  0  0  0
   29.4778    2.7518  -10.2137 C   0  0  0  0  0  0  0  0  0  0  0  0
   29.6246    3.4678   -8.8837 C   0  0  0  0  0  0  0  0  0  0  0  0
   30.5973    1.5825   -5.5601 O   0  0  0  0  0  0  0  0  0  0  0  0
   38.6928    3.8169   -4.5372 C   0  0  0  0  0  0  0  0  0  0  0  0
  1 20  1  0
  1 26  1  0
  1 27  1  0
  2  8  1  0
  2 23  2  0
  3 21  2  0
  3 22  1  0
  3 33  1  0
  4 25  2  0
  5 15  1  0
  5 24  1  0
  5 27  1  0
  6 30  2  0
  7 10  2  3
  7 18  1  0
  8 10  1  0
  8 33  2  0
  9 24  1  0
 10 22  1  0
 11 17  1  0
 11 27  1  0
 12 13  2  0
 12 23  1  0
 13 28  1  0
 14 17  1  0
 14 20  1  0
 16 18  2  0
 17 18  1  0
 19 25  1  0
 24 31  1  0
 25 26  1  0
 25 32  1  0
 28 33  1  0
 29 30  1  0
 30 31  1  0
M  END
>  <ID>  (1) 
conformer_0

$$$$
