
     RDKit          3D

 27 29  0  0  0  0  0  0  0  0999 V2000
   37.6825    3.5915   -5.5914 C   0  0  0  0  0  0  0  0  0  0  0  0
   35.8682    4.7772   -6.3798 C   0  0  0  0  0  0  0  0  0  0  0  0
   31.7107    1.3917   -5.0217 O   0  0  0  0  0  0  0  0  0  0  0  0
   30.9684    5.4263   -7.5675 O   0  0  0  0  0  0  0  0  0  0  0  0
   38.3739    2.3716   -5.4181 C   0  0  0  0  0  0  0  0  0  0  0  0
   35.3890    4.9451   -5.0296 C   0  0  0  0  0  0  0  0  0  0  0  0
   31.6030    4.5614   -6.7600 C   0  0  0  0  0  0  0  0  0  0  0  0
   39.6069    2.5490   -4.7283 C   0  0  0  0  0  0  0  0  0  0  0  0
   33.7907    5.1248   -7.4428 O   0  0  0  0  0  0  0  0  0  0  0  0
   29.2458    3.5792  -10.2150 O   0  0  0  0  0  0  0  0  0  0  0  0
   33.3130    4.0404   -3.9363 C   0  0  0  0  0  0  0  0  0  0  0  0
   37.6418    4.5747   -4.5711 C   0  0  0  0  0  0  0  0  0  0  0  0
   31.1484    2.6450   -5.3647 C   0  0  0  0  0  0  0  0  0  0  0  0
   30.2294    3.0144   -9.2972 C   0  0  0  0  0  0  0  0  0  0  0  0
   36.6982    3.6417   -6.6206 C   0  0  0  0  0  0  0  0  0  0  0  0
   32.2243    2.2561   -7.5642 O   0  0  0  0  0  0  0  0  0  0  0  0
   31.2063    3.0750   -6.8918 C   0  0  0  0  0  0  0  0  0  0  0  0
   39.6541    3.2915   -3.4545 C   0  0  0  0  0  0  0  0  0  0  0  0
   36.3323    4.8970   -4.0377 C   0  0  0  0  0  0  0  0  0  0  0  0
   31.8663    3.7350   -4.4565 C   0  0  0  0  0  0  0  0  0  0  0  0
   38.6877    5.4371   -4.0231 C   0  0  0  0  0  0  0  0  0  0  0  0
   29.9421    2.9735   -7.8046 C   0  0  0  0  0  0  0  0  0  0  0  0
   31.7545    4.9433   -5.3843 O   0  0  0  0  0  0  0  0  0  0  0  0
   38.5418    6.6980   -4.0228 O   0  0  0  0  0  0  0  0  0  0  0  0
   33.0139    5.0371   -6.1184 C   0  0  0  0  0  0  0  0  0  0  0  0
   33.9449    5.2323   -4.8276 C   0  0  0  0  0  0  0  0  0  0  0  0
   39.6593    4.7436   -3.2170 C   0  0  0  0  0  0  0  0  0  0  0  0
  1  5  1  0
  1 12  1  0
  1 15  1  0
  2  6  1  0
  2 15  1  0
  3 13  1  0
  4  7  2  0
  5  8  1  0
  6 19  1  0
  6 26  1  0
  7 17  1  0
  7 23  1  0
  8 18  1  0
  9 25  2  0
 10 14  1  0
 11 20  1  0
 11 26  1  0
 12 19  1  0
 12 21  1  0
 13 17  1  0
 13 20  1  0
 14 22  1  0
 16 17  1  0
 17 22  1  0
 18 27  1  0
 21 24  2  0
 21 27  1  0
 23 25  1  0
 25 26  1  0
M  END
>  <ID>  (1) 
conformer_0

$$$$
