
     RDKit          3D

 26 26  0  0  0  0  0  0  0  0999 V2000
   30.5421    3.0684   -8.1963 C   0  0  0  0  0  0  0  0  0  0  0  0
   37.2112    3.1644   -6.7831 C   0  0  0  0  0  0  0  0  0  0  0  0
   37.9671    3.0390   -5.6092 C   0  0  0  0  0  0  0  0  0  0  0  0
   37.9625    4.1591   -4.7476 C   0  0  0  0  0  0  0  0  0  0  0  0
   36.6615    4.8398   -4.7196 C   0  0  0  0  0  0  0  0  0  0  0  0
   39.4936    5.8770   -3.7252 C   0  0  0  0  0  0  0  0  0  0  0  0
   31.3763    3.8047   -5.8428 C   0  0  0  0  0  0  0  0  0  0  0  0
   30.7626    2.5570   -5.5250 O   0  0  0  0  0  0  0  0  0  0  0  0
   29.3476    2.4915   -7.8727 O   0  0  0  0  0  0  0  0  0  0  0  0
   32.6109    6.1437   -6.1241 O   0  0  0  0  0  0  0  0  0  0  0  0
   29.2005    3.4636  -10.2844 O   0  0  0  0  0  0  0  0  0  0  0  0
   34.1265    4.3944   -5.1619 C   0  0  0  0  0  0  0  0  0  0  0  0
   30.3949    3.5659   -9.5958 N   0  0  0  0  0  0  0  0  0  0  0  0
   36.5029    5.9333   -4.2252 O   0  0  0  0  0  0  0  0  0  0  0  0
   31.7287    4.4640   -4.4583 C   0  0  0  0  0  0  0  0  0  0  0  0
   33.4891    5.1168   -6.3066 C   0  0  0  0  0  0  0  0  0  0  0  0
   34.4032    4.5038   -3.1378 O   0  0  0  0  0  0  0  0  0  0  0  0
   31.7361    2.2814   -8.0344 C   0  0  0  0  0  0  0  0  0  0  0  0
   33.1989    4.1333   -4.0016 C   0  0  0  0  0  0  0  0  0  0  0  0
   35.9080    3.6345   -6.6250 C   0  0  0  0  0  0  0  0  0  0  0  0
   39.1030    4.4480   -3.8740 C   0  0  0  0  0  0  0  0  0  0  0  0
   39.8297    3.3949   -3.4716 O   0  0  0  0  0  0  0  0  0  0  0  0
   35.6143    4.2158   -5.3845 N   0  0  0  0  0  0  0  0  0  0  0  0
   31.1843    4.1721   -7.3305 C   0  0  0  0  0  0  0  0  0  0  0  0
   33.9197    5.0062   -7.6080 O   0  0  0  0  0  0  0  0  0  0  0  0
   38.1300    1.8156   -5.1469 O   0  0  0  0  0  0  0  0  0  0  0  0
  1  9  1  0
  1 13  1  0
  1 18  1  0
  1 24  1  0
  2  3  1  0
  2 20  2  0
  3  4  1  0
  3 26  1  0
  4  5  1  0
  4 21  1  0
  5 14  2  0
  5 23  1  0
  6 21  1  0
  7  8  1  0
  7 15  1  0
  7 24  1  0
 10 16  2  0
 11 13  1  0
 12 16  1  0
 12 19  1  0
 12 23  1  0
 15 19  1  0
 16 25  1  0
 17 19  1  0
 20 23  1  0
 21 22  1  0
M  END
>  <ID>  (1) 
conformer_0

$$$$
