
     RDKit          3D

 26 29  0  0  0  0  0  0  0  0999 V2000
   33.4327    4.8846   -3.7010 O   0  0  0  0  0  0  0  0  0  0  0  0
   39.5539    3.4590   -4.0476 C   0  0  0  0  0  0  0  0  0  0  0  0
   39.0833    2.7840   -5.1262 C   0  0  0  0  0  0  0  0  0  0  0  0
   37.7534    4.9694   -3.7064 C   0  0  0  0  0  0  0  0  0  0  0  0
   31.4233    2.6544   -3.9690 O   0  0  0  0  0  0  0  0  0  0  0  0
   31.7416    4.6603   -7.4433 C   0  0  0  0  0  0  0  0  0  0  0  0
   27.9448    2.3775   -9.0918 C   0  0  0  0  0  0  0  0  0  0  0  0
   36.7527    4.6053   -4.5760 C   0  0  0  0  0  0  0  0  0  0  0  0
   30.9686    3.2970   -7.6378 C   0  0  0  0  0  0  0  0  0  0  0  0
   33.8240    4.5918   -5.9011 N   0  0  0  0  0  0  0  0  0  0  0  0
   30.5130    1.5681   -4.1026 C   0  0  0  0  0  0  0  0  0  0  0  0
   35.5555    5.0333   -4.2898 N   0  0  0  0  0  0  0  0  0  0  0  0
   38.0158    2.9391   -5.8629 C   0  0  0  0  0  0  0  0  0  0  0  0
   30.1717    1.6290   -5.5213 O   0  0  0  0  0  0  0  0  0  0  0  0
   30.4609    0.1758   -3.6796 C   0  0  0  0  0  0  0  0  0  0  0  0
   34.2891    4.8205   -4.6097 C   0  0  0  0  0  0  0  0  0  0  0  0
   30.2931    3.4217   -8.9673 N   0  0  0  0  0  0  0  0  0  0  0  0
   29.2278    2.9171   -9.6246 C   0  0  0  0  0  0  0  0  0  0  0  0
   30.7453    2.7407   -6.1856 C   0  0  0  0  0  0  0  0  0  0  0  0
   36.9489    3.7837   -5.7283 C   0  0  0  0  0  0  0  0  0  0  0  0
   29.0844    3.3889  -10.8596 O   0  0  0  0  0  0  0  0  0  0  0  0
   35.9984    3.8170   -6.7350 C   0  0  0  0  0  0  0  0  0  0  0  0
   31.5433    3.5452   -5.1975 C   0  0  0  0  0  0  0  0  0  0  0  0
   32.3014    4.6420   -6.0078 C   0  0  0  0  0  0  0  0  0  0  0  0
   38.9489    4.4873   -3.4396 C   0  0  0  0  0  0  0  0  0  0  0  0
   34.7404    4.2057   -6.8411 C   0  0  0  0  0  0  0  0  0  0  0  0
  1 16  2  0
  2  3  1  0
  2 25  1  0
  3 13  2  0
  4  8  1  0
  4 25  2  0
  5 11  1  0
  5 23  1  0
  6  9  1  0
  6 24  1  0
  7 18  1  0
  8 12  2  0
  8 20  1  0
  9 17  1  0
  9 19  1  0
 10 16  1  0
 10 24  1  0
 10 26  1  0
 11 14  1  0
 11 15  1  0
 12 16  1  0
 13 20  1  0
 14 19  1  0
 17 18  1  0
 18 21  2  0
 19 23  2  0
 20 22  1  0
 22 26  2  0
 23 24  1  0
M  END
>  <ID>  (1) 
conformer_0

$$$$
