
     RDKit          3D

 31 32  0  0  0  0  0  0  0  0999 V2000
   35.8814    3.5966   -6.2133 N   0  0  0  0  0  0  0  0  0  0  0  0
   33.6858    4.8480   -6.4664 C   0  0  0  0  0  0  0  0  0  0  0  0
   37.4085    4.5806   -4.6509 C   0  0  0  0  0  0  0  0  0  0  0  0
   31.2435    4.6106   -6.8892 C   0  0  0  0  0  0  0  0  0  0  0  0
   28.7317    3.4725  -10.8510 O   0  0  0  0  0  1  0  0  0  0  0  0
   38.7865    6.6141   -3.8023 C   0  0  0  0  0  0  0  0  0  0  0  0
   28.0761    2.6021   -8.7423 O   0  0  0  0  0  0  0  0  0  0  0  0
   37.9733    2.4455   -5.7347 C   0  0  0  0  0  0  0  0  0  0  0  0
   39.9038    1.0523   -5.3236 O   0  0  0  0  0  0  0  0  0  0  0  0
   32.2605    3.6802   -4.7851 O   0  0  0  0  0  0  0  0  0  0  0  0
   37.0704    3.5306   -5.5484 C   0  0  0  0  0  0  0  0  0  0  0  0
   35.1064    4.7519   -4.3055 C   0  0  0  0  0  0  0  0  0  0  0  0
   34.7602    4.1766   -5.6175 C   0  0  0  0  0  0  0  0  0  0  0  0
   30.4687    3.6441   -9.1071 C   0  0  0  0  0  0  0  0  0  0  0  0
   33.6812    4.4997   -7.8090 O   0  0  0  0  0  0  0  0  0  0  0  0
   39.6227    4.2652   -3.3860 N   0  0  0  0  0  0  0  0  0  0  0  0
   29.2191    2.0942   -3.7903 O   0  0  0  0  0  0  0  0  0  0  0  0
   29.1970    2.7583   -9.6663 P   0  0  0  0  0  4  0  0  0  0  0  0
   30.7660    3.3641   -7.6264 C   0  0  0  0  0  0  0  0  0  0  0  0
   36.3001    5.3910   -4.3155 N   0  0  0  0  0  0  0  0  0  0  0  0
   39.2464    2.3979   -4.9980 C   0  0  0  0  0  0  0  0  0  0  0  0
   32.3014    4.7615   -5.7880 C   0  0  0  0  0  0  0  0  0  0  0  0
   31.3919    2.9280   -4.0025 C   0  0  0  0  0  0  0  0  0  0  0  0
   30.2628    2.3315   -6.9158 O   0  0  0  0  0  0  0  0  0  0  0  0
   39.8106    2.9260   -3.7039 C   0  0  0  0  0  0  0  0  0  0  0  0
   29.7229    1.5100  -10.0829 O   0  0  0  0  0  0  0  0  0  0  0  0
   38.6957    5.0056   -4.0492 C   0  0  0  0  0  0  0  0  0  0  0  0
   31.1384    5.7782   -7.6639 O   0  0  0  0  0  0  0  0  0  0  0  0
   30.8942    0.6709   -4.2794 O   0  0  0  0  0  0  0  0  0  0  0  0
   30.4220    1.8111   -4.1238 C   0  0  0  0  0  0  0  0  0  0  0  0
   34.4342    4.5166   -3.3026 O   0  0  0  0  0  0  0  0  0  0  0  0
  1 11  1  0
  1 13  1  0
  2 13  1  0
  2 15  1  0
  2 22  1  0
  3 11  1  0
  3 20  1  0
  3 27  1  0
  4 19  1  0
  4 22  1  0
  4 28  1  0
  5 18  2  0
  6 27  1  0
  7 18  1  0
  8 11  2  0
  8 21  1  0
  9 21  1  0
 10 22  1  0
 10 23  1  0
 12 13  1  0
 12 20  1  0
 12 31  2  0
 14 18  1  0
 14 19  1  0
 16 25  1  0
 16 27  1  0
 17 30  2  0
 18 26  1  0
 19 24  1  0
 21 25  1  0
 23 30  1  0
 29 30  1  0
M  END
>  <ID>  (1) 
conformer_0

$$$$
