
     RDKit          3D

 24 26  0  0  0  0  0  0  0  0999 V2000
   34.3231    4.5551   -5.4199 C   0  0  0  0  0  0  0  0  0  0  0  0
   31.3068    2.2243   -8.2958 S   0  0  0  0  0  0  0  0  0  0  0  0
   31.2155    4.5524   -7.7151 C   0  0  0  0  0  0  0  0  0  0  0  0
   30.1330    3.7180   -9.6899 N   0  0  0  0  0  0  0  0  0  0  0  0
   31.6399    1.2121   -4.6746 O   0  0  0  0  0  0  0  0  0  0  0  0
   39.2762    4.1637   -3.9004 C   0  0  0  0  0  0  0  0  0  0  0  0
   31.3890    3.5413   -4.1052 C   0  0  0  0  0  0  0  0  0  0  0  0
   30.7887    2.1771   -3.9889 C   0  0  0  0  0  0  0  0  0  0  0  0
   31.0381    4.3632   -5.2992 C   0  0  0  0  0  0  0  0  0  0  0  0
   38.4346    5.2372   -3.6666 C   0  0  0  0  0  0  0  0  0  0  0  0
   37.2358    5.3209   -4.3749 C   0  0  0  0  0  0  0  0  0  0  0  0
   38.9681    3.1932   -4.8235 C   0  0  0  0  0  0  0  0  0  0  0  0
   35.6138    4.3193   -5.9208 C   0  0  0  0  0  0  0  0  0  0  0  0
   33.3629    4.4469   -6.4449 C   0  0  0  0  0  0  0  0  0  0  0  0
   34.1121    4.1599   -7.6097 C   0  0  0  0  0  0  0  0  0  0  0  0
   37.7656    3.2782   -5.5114 C   0  0  0  0  0  0  0  0  0  0  0  0
   33.9779    4.6709   -3.9751 C   0  0  0  0  0  0  0  0  0  0  0  0
   30.5193    3.4078   -8.3702 C   0  0  0  0  0  0  0  0  0  0  0  0
   28.9921    3.4434  -10.3354 O   0  0  0  0  0  0  0  0  0  0  0  0
   31.9190    4.4840   -6.4482 C   0  0  0  0  0  0  0  0  0  0  0  0
   37.4405    2.3208   -6.3560 O   0  0  0  0  0  0  0  0  0  0  0  0
   32.7550    3.8487   -3.5294 C   0  0  0  0  0  0  0  0  0  0  0  0
   35.4534    4.0090   -7.2727 C   0  0  0  0  0  0  0  0  0  0  0  0
   36.8471    4.3500   -5.2584 C   0  0  0  0  0  0  0  0  0  0  0  0
  1 13  2  0
  1 14  1  0
  1 17  1  0
  2 18  1  0
  3 18  1  0
  3 20  1  0
  4 18  1  0
  4 19  1  0
  5  8  1  0
  6 10  2  0
  6 12  1  0
  7  8  1  0
  7  9  1  0
  7 22  1  0
  9 20  1  0
 10 11  1  0
 11 24  2  0
 12 16  2  0
 13 23  1  0
 13 24  1  0
 14 15  1  0
 14 20  1  0
 15 23  1  0
 16 21  1  0
 16 24  1  0
 17 22  1  0
M  END
>  <ID>  (1) 
conformer_0

$$$$
