
     RDKit          3D

 35 38  0  0  0  0  0  0  0  0999 V2000
   33.4626    4.2511   -4.5214 C   0  0  0  0  0  0  0  0  0  0  0  0
   32.4011    4.3710   -6.7616 C   0  0  0  0  0  0  0  0  0  0  0  0
   30.4141    1.6382  -10.2278 O   0  0  0  0  0  0  0  0  0  0  0  0
   34.7965    4.4228   -6.5987 C   0  0  0  0  0  0  0  0  0  0  0  0
   36.3264    4.3827   -8.3747 F   0  0  0  0  0  0  0  0  0  0  0  0
   31.3328    1.0660   -5.0357 O   0  0  0  0  0  0  0  0  0  0  0  0
   36.0443    4.1082   -7.1834 C   0  0  0  0  0  0  0  0  0  0  0  0
   34.7014    4.5196   -5.1881 C   0  0  0  0  0  0  0  0  0  0  0  0
   31.1253    4.4107   -7.5376 C   0  0  0  0  0  0  0  0  0  0  0  0
   33.3925    4.0517   -3.2590 O   0  0  0  0  0  0  0  0  0  0  0  0
   37.5922    6.3972   -3.4683 F   0  0  0  0  0  0  0  0  0  0  0  0
   39.9455    4.7946   -2.9069 C   0  0  0  0  0  0  0  0  0  0  0  0
   29.4119    2.0424   -3.9131 C   0  0  0  0  0  0  0  0  0  0  0  0
   30.9844    3.9547   -4.8396 N   0  0  0  0  0  0  0  0  0  0  0  0
   40.0436    3.4032   -3.4087 C   0  0  0  0  0  0  0  0  0  0  0  0
   29.2396    2.8612   -8.5269 C   0  0  0  0  0  0  0  0  0  0  0  0
   30.0615    0.8421   -4.3951 C   0  0  0  0  0  0  0  0  0  0  0  0
   30.3131    3.3333   -7.7248 N   0  0  0  0  0  0  0  0  0  0  0  0
   29.0828    3.3113  -10.9121 O   0  0  0  0  0  0  0  0  0  0  0  0
   37.0392    4.3411   -5.0018 C   0  0  0  0  0  0  0  0  0  0  0  0
   37.8541    2.6069   -6.4559 C   0  0  0  0  0  0  0  0  0  0  0  0
   39.3045    6.6104   -4.1664 F   0  0  0  0  0  0  0  0  0  0  0  0
   38.7273    5.5050   -3.6344 C   0  0  0  0  0  0  0  0  0  0  0  0
   30.7835    5.5728   -7.8721 O   0  0  0  0  0  0  0  0  0  0  0  0
   40.6109    2.2638   -2.9609 C   0  0  0  0  0  0  0  0  0  0  0  0
   29.5850    2.5773   -9.9515 C   0  0  0  0  0  0  0  0  0  0  0  0
   38.2327    4.3859   -4.3814 C   0  0  0  0  0  0  0  0  0  0  0  0
   32.2959    4.1917   -5.3955 C   0  0  0  0  0  0  0  0  0  0  0  0
   28.4027    1.9372   -7.8900 O   0  0  0  0  0  0  0  0  0  0  0  0
   39.0425    3.3024   -4.4402 C   0  0  0  0  0  0  0  0  0  0  0  0
   38.8235    2.3633   -5.4708 C   0  0  0  0  0  0  0  0  0  0  0  0
   30.3101    3.1941   -3.8649 C   0  0  0  0  0  0  0  0  0  0  0  0
   33.6624    4.5218   -7.4077 C   0  0  0  0  0  0  0  0  0  0  0  0
   35.8601    4.8331   -4.4485 C   0  0  0  0  0  0  0  0  0  0  0  0
   36.9911    3.6278   -6.2334 C   0  0  0  0  0  0  0  0  0  0  0  0
  1  8  1  0
  1 10  2  0
  1 28  1  0
  2  9  1  0
  2 28  2  0
  2 33  1  0
  3 26  2  0
  4  7  1  0
  4  8  1  0
  4 33  1  0
  5  7  1  0
  6 17  1  0
  7 35  1  0
  8 34  1  0
  9 18  1  0
  9 24  2  0
 11 23  1  0
 12 15  1  0
 12 23  1  0
 13 17  1  0
 13 32  1  0
 14 28  1  0
 14 32  1  0
 15 25  2  0
 15 30  1  0
 16 18  1  0
 16 26  1  0
 16 29  2  0
 19 26  1  0
 20 27  1  0
 20 34  1  0
 20 35  1  0
 21 31  1  0
 21 35  2  0
 22 23  1  0
 23 27  1  0
 27 30  1  0
 30 31  2  0
M  END
>  <ID>  (1) 
conformer_0

$$$$
