
     RDKit          3D

 34 37  0  0  0  0  0  0  0  0999 V2000
   35.3179    4.2351   -6.4790 P   0  0  0  0  0  4  0  0  0  0  0  0
   29.4158    2.5845  -10.0194 C   0  0  0  0  0  0  0  0  0  0  0  0
   29.4655    1.6942   -3.8650 S   0  0  0  0  0  0  0  0  0  0  0  0
   35.6909    4.5581   -4.8680 C   0  0  0  0  0  0  0  0  0  0  0  0
   37.4735    2.3364   -6.0452 C   0  0  0  0  0  0  0  0  0  0  0  0
   32.8294    4.1343   -5.4422 C   0  0  0  0  0  0  0  0  0  0  0  0
   39.0029    7.1389   -3.3935 O   0  0  0  0  0  0  0  0  0  0  0  0
   28.9261    3.4426  -10.8068 O   0  0  0  0  0  0  0  0  0  0  0  0
   38.6416    1.6114   -5.6120 C   0  0  0  0  0  0  0  0  0  0  0  0
   33.7328    4.1922   -3.2959 C   0  0  0  0  0  0  0  0  0  0  0  0
   31.5814    3.1300   -3.9320 C   0  0  0  0  0  0  0  0  0  0  0  0
   29.3636    2.9194   -8.5133 C   0  0  0  0  0  0  0  0  0  0  0  0
   32.8294    5.2660   -7.5682 O   0  0  0  0  0  0  0  0  0  0  0  0
   39.1588    4.9810   -3.7930 C   0  0  0  0  0  0  0  0  0  0  0  0
   37.6985    3.7683   -5.8553 C   0  0  0  0  0  0  0  0  0  0  0  0
   30.6061    2.6447   -4.7728 C   0  0  0  0  0  0  0  0  0  0  0  0
   32.3513    4.3682   -6.6543 C   0  0  0  0  0  0  0  0  0  0  0  0
   37.9613    6.8150   -4.2296 C   0  0  0  0  0  0  0  0  0  0  0  0
   32.7175    3.8131   -4.2363 C   0  0  0  0  0  0  0  0  0  0  0  0
   29.2876    2.2297   -7.1468 C   0  0  0  0  0  0  0  0  0  0  0  0
   35.8396    5.2193   -7.3528 O   0  0  0  0  0  0  0  0  0  0  0  0
   30.1027    1.6017  -10.3161 O   0  0  0  0  0  0  0  0  0  0  0  0
   40.1496    1.3575   -4.2542 O   0  0  0  0  0  0  0  0  0  0  0  0
   34.9924    4.5622   -3.7477 C   0  0  0  0  0  0  0  0  0  0  0  0
   30.6381    3.8423   -8.3345 C   0  0  0  0  0  0  0  0  0  0  0  0
   39.4567    3.5828   -3.8664 C   0  0  0  0  0  0  0  0  0  0  0  0
   39.7407    5.9780   -3.1303 N   0  0  0  0  0  0  0  0  0  0  0  0
   34.7987    3.0473   -7.0709 O   0  0  0  0  0  1  0  0  0  0  0  0
   37.8628    5.4560   -4.1146 C   0  0  0  0  0  0  0  0  0  0  0  0
   30.3513    2.8412   -6.1870 N   0  0  0  0  0  0  0  0  0  0  0  0
   39.4070    2.3921   -4.7043 C   0  0  0  0  0  0  0  0  0  0  0  0
   37.1082    4.6040   -4.9025 N   0  0  0  0  0  0  0  0  0  0  0  0
   40.3112    3.3606   -2.7729 N   0  0  0  0  0  0  0  0  0  0  0  0
   31.2804    3.4827   -7.0563 C   0  0  0  0  0  0  0  0  0  0  0  0
  1  4  1  0
  1 21  1  0
  1 28  2  0
  2  8  2  0
  2 12  1  0
  2 22  1  0
  3 16  2  0
  4 24  1  0
  4 32  1  0
  5  9  1  0
  5 15  1  0
  6 17  1  0
  6 19  1  0
  7 18  1  0
  7 27  1  0
  9 31  1  0
 10 19  1  0
 10 24  2  3
 11 16  1  0
 11 19  2  0
 12 20  1  0
 12 25  1  0
 13 17  1  0
 14 26  1  0
 14 27  1  0
 14 29  1  0
 15 32  1  0
 16 30  1  0
 17 34  1  0
 18 29  1  0
 20 30  1  0
 23 31  1  0
 25 34  1  0
 26 31  1  0
 26 33  1  0
 29 32  1  0
 30 34  1  0
M  END
>  <ID>  (1) 
conformer_0

$$$$
