
     RDKit          3D

 34 37  0  0  0  0  0  0  0  0999 V2000
   34.1054    4.4554   -4.9901 C   0  0  0  0  0  0  0  0  0  0  0  0
   32.8843    4.5475   -5.6146 C   0  0  0  0  0  0  0  0  0  0  0  0
   31.7924    3.4025   -3.7362 C   0  0  0  0  0  0  0  0  0  0  0  0
   31.1750    1.9334   -8.9280 O   0  0  0  0  0  0  0  0  0  0  0  0
   29.2186    2.8590   -3.7350 O   0  0  0  0  0  0  0  0  0  0  0  0
   30.5865    3.1202   -8.6679 C   0  0  0  0  0  0  0  0  0  0  0  0
   39.2562    5.5329   -3.3325 C   0  0  0  0  0  0  0  0  0  0  0  0
   37.4246    5.3361   -4.8237 C   0  0  0  0  0  0  0  0  0  0  0  0
   37.5202    3.3498   -6.3839 N   0  0  0  0  0  0  0  0  0  0  0  0
   29.4317    3.1021   -9.9261 C   0  0  0  0  0  0  0  0  0  0  0  0
   31.7841    4.3662   -4.7924 C   0  0  0  0  0  0  0  0  0  0  0  0
   37.8695    4.0575   -5.2513 C   0  0  0  0  0  0  0  0  0  0  0  0
   28.3954    1.5724   -3.6990 C   0  0  0  0  0  0  0  0  0  0  0  0
   32.0401    3.9218   -7.9362 O   0  0  0  0  0  0  0  0  0  0  0  0
   35.1218    4.7078   -5.7725 C   0  0  0  0  0  0  0  0  0  0  0  0
   29.7652    3.2732   -7.5908 O   0  0  0  0  0  0  0  0  0  0  0  0
   32.4646    4.9731   -6.9851 C   0  0  0  0  0  0  0  0  0  0  0  0
   34.9608    5.2326   -8.0243 O   0  0  0  0  0  0  0  0  0  0  0  0
   38.9335    3.4712   -4.5048 C   0  0  0  0  0  0  0  0  0  0  0  0
   30.6635    1.1044   -4.3404 C   0  0  0  0  0  0  0  0  0  0  0  0
   29.2253    0.5329   -4.2830 C   0  0  0  0  0  0  0  0  0  0  0  0
   31.1200    1.3796   -5.6421 O   0  0  0  0  0  0  0  0  0  0  0  0
   39.6240    4.2191   -3.5914 C   0  0  0  0  0  0  0  0  0  0  0  0
   31.5223    0.2098   -3.7066 O   0  0  0  0  0  0  0  0  0  0  0  0
   30.7802    5.3552   -5.1726 O   0  0  0  0  0  0  0  0  0  0  0  0
   30.6213    2.4593   -3.4978 C   0  0  0  0  0  0  0  0  0  0  0  0
   34.1809    3.9659   -3.6202 C   0  0  0  0  0  0  0  0  0  0  0  0
   38.0983    6.0692   -3.9194 C   0  0  0  0  0  0  0  0  0  0  0  0
   31.2633    5.7698   -6.5880 C   0  0  0  0  0  0  0  0  0  0  0  0
   37.3030    3.9438   -8.5845 O   0  0  0  0  0  0  0  0  0  0  0  0
   36.8083    3.9132   -7.3739 C   0  0  0  0  0  0  0  0  0  0  0  0
   33.0463    3.3427   -3.0189 C   0  0  0  0  0  0  0  0  0  0  0  0
   35.5795    4.6599   -7.0397 C   0  0  0  0  0  0  0  0  0  0  0  0
   30.1343    3.1935  -11.1306 O   0  0  0  0  0  0  0  0  0  0  0  0
  1  2  2  0
  1 15  1  0
  1 27  1  0
  2 11  1  0
  2 17  1  0
  3 11  1  0
  3 26  1  0
  3 32  1  0
  4  6  1  0
  5 13  1  0
  5 26  1  0
  6 10  1  0
  6 14  1  0
  6 16  1  0
  7 23  1  0
  7 28  1  0
  8 12  1  0
  8 28  2  0
  9 12  2  3
  9 31  1  0
 10 34  1  0
 11 25  1  0
 12 19  1  0
 13 21  1  0
 14 17  1  0
 15 33  1  0
 17 29  1  0
 18 33  1  0
 19 23  2  0
 20 21  1  0
 20 22  1  0
 20 24  1  0
 20 26  1  0
 25 29  1  0
 27 32  2  0
 30 31  2  0
 31 33  1  0
M  END
>  <ID>  (1) 
conformer_0

$$$$
