
     RDKit          3D

 30 33  0  0  0  0  0  0  0  0999 V2000
   36.5596    2.9623   -6.8011 N   0  0  0  0  0  0  0  0  0  0  0  0
   30.1537    4.3177   -8.4485 O   0  0  0  0  0  0  0  0  0  0  0  0
   31.8009    2.9986   -7.2892 C   0  0  0  0  0  0  0  0  0  0  0  0
   36.7900    4.3623   -4.8841 C   0  0  0  0  0  0  0  0  0  0  0  0
   34.7911    4.6866   -3.4893 O   0  0  0  0  0  0  0  0  0  0  0  0
   39.5342    5.8182   -3.3294 O   0  0  0  0  0  0  0  0  0  0  0  0
   30.7168    3.1611   -8.3193 C   0  0  0  0  0  0  0  0  0  0  0  0
   32.6861    4.8868   -4.6710 C   0  0  0  0  0  0  0  0  0  0  0  0
   33.3487    4.3836   -3.4608 C   0  0  0  0  0  0  0  0  0  0  0  0
   30.4296    2.2089   -9.2705 N   0  0  0  0  0  0  0  0  0  0  0  0
   29.4312    2.5626  -10.1361 C   0  0  0  0  0  0  0  0  0  0  0  0
   34.6751    3.9703   -5.8265 C   0  0  0  0  0  0  0  0  0  0  0  0
   30.7421    5.5552   -5.7214 O   0  0  0  0  0  0  0  0  0  0  0  0
   32.2606    1.7630   -7.0273 O   0  0  0  0  0  0  0  0  0  0  0  0
   30.7415    2.4376   -3.8564 C   0  0  0  0  0  0  0  0  0  0  0  0
   31.2007    4.6720   -4.8688 C   0  0  0  0  0  0  0  0  0  0  0  0
   37.2657    3.3717   -5.6699 C   0  0  0  0  0  0  0  0  0  0  0  0
   30.5263    4.0274   -3.7096 C   0  0  0  0  0  0  0  0  0  0  0  0
   38.5958    6.9488   -3.3809 C   0  0  0  0  0  0  0  0  0  0  0  0
   29.3871    3.3632  -11.0214 O   0  0  0  0  0  0  0  0  0  0  0  0
   37.3123    6.4215   -3.7967 O   0  0  0  0  0  0  0  0  0  0  0  0
   33.3822    4.6895   -5.9374 C   0  0  0  0  0  0  0  0  0  0  0  0
   38.9262    1.7573   -5.9852 O   0  0  0  0  0  0  0  0  0  0  0  0
   38.9325    4.7997   -3.9721 C   0  0  0  0  0  0  0  0  0  0  0  0
   38.5686    2.8723   -5.3735 C   0  0  0  0  0  0  0  0  0  0  0  0
   39.4113    3.5859   -4.4768 C   0  0  0  0  0  0  0  0  0  0  0  0
   32.5747    4.1844   -7.0404 C   0  0  0  0  0  0  0  0  0  0  0  0
   35.4104    4.5899   -4.7444 C   0  0  0  0  0  0  0  0  0  0  0  0
   35.4103    3.7177   -7.0368 C   0  0  0  0  0  0  0  0  0  0  0  0
   37.6386    5.1567   -4.1752 C   0  0  0  0  0  0  0  0  0  0  0  0
  1 17  1  0
  1 29  1  0
  2  7  2  0
  3  7  1  0
  3 14  1  0
  3 27  1  0
  4 17  1  0
  4 28  1  0
  4 30  1  0
  5  9  1  0
  5 28  1  0
  6 19  1  0
  6 24  1  0
  7 10  1  0
  8  9  1  0
  8 16  1  0
  8 22  1  0
 10 11  1  0
 11 20  2  0
 12 22  1  0
 12 28  1  0
 12 29  1  0
 13 16  1  0
 15 18  1  0
 16 18  1  0
 17 25  1  0
 19 21  1  0
 21 30  1  0
 22 27  1  0
 23 25  1  0
 24 26  1  0
 24 30  2  0
 25 26  2  0
M  END
>  <ID>  (1) 
conformer_0

$$$$
