
     RDKit          3D

 30 32  0  0  0  0  0  0  0  0999 V2000
   37.7104    6.4917   -3.7402 C   0  0  0  0  0  0  0  0  0  0  0  0
   32.6657    4.0245   -4.4131 C   0  0  0  0  0  0  0  0  0  0  0  0
   30.1329    2.9670   -8.5723 C   0  0  0  0  0  0  0  0  0  0  0  0
   38.6250    4.4933   -4.3311 C   0  0  0  0  0  0  0  0  0  0  0  0
   29.8406    0.8826   -5.2708 O   0  0  0  0  0  1  0  0  0  0  0  0
   36.5198    3.0706   -6.7334 C   0  0  0  0  0  0  0  0  0  0  0  0
   33.3038    4.3791   -5.7077 C   0  0  0  0  0  0  0  0  0  0  0  0
   39.3809    3.3722   -4.5381 N   0  0  0  0  0  0  0  0  0  0  0  0
   36.2101    5.0311   -4.9658 N   0  0  0  0  0  0  0  0  0  0  0  0
   35.4067    3.7265   -6.7321 C   0  0  0  0  0  0  0  0  0  0  0  0
   33.2326    5.0307   -7.9617 O   0  0  0  0  0  0  0  0  0  0  0  0
   28.2344    1.9784   -3.7102 O   0  0  0  0  0  0  0  0  0  0  0  0
   31.0898    3.7558   -7.6908 C   0  0  0  0  0  0  0  0  0  0  0  0
   37.3235    4.3327   -5.0269 C   0  0  0  0  0  0  0  0  0  0  0  0
   36.5294    6.2031   -4.2955 C   0  0  0  0  0  0  0  0  0  0  0  0
   33.4098    4.8256   -3.4053 O   0  0  0  0  0  0  0  0  0  0  0  0
   31.1064    4.0898   -4.3214 C   0  0  0  0  0  0  0  0  0  0  0  0
   30.1442    0.7269   -2.7590 O   0  0  0  0  0  0  0  0  0  0  0  0
   34.9507    4.4804   -5.5977 N   0  0  0  0  0  0  0  0  0  0  0  0
   30.0157    3.4063   -9.8643 O   0  0  0  0  0  0  0  0  0  0  0  0
   29.3064    2.1662   -8.0945 O   0  0  0  0  0  0  0  0  0  0  0  0
   32.6097    4.0418   -7.0028 C   0  0  0  0  0  0  0  0  0  0  0  0
   38.7187    2.6200   -5.4903 C   0  0  0  0  0  0  0  0  0  0  0  0
   31.3452    3.2842   -6.3973 O   0  0  0  0  0  0  0  0  0  0  0  0
   38.8356    5.6684   -3.6567 C   0  0  0  0  0  0  0  0  0  0  0  0
   39.1996    1.5338   -5.9837 N   0  0  0  0  0  0  0  0  0  0  0  0
   37.4426    3.2017   -5.8371 C   0  0  0  0  0  0  0  0  0  0  0  0
   29.6450    1.5848   -3.9215 P   0  0  0  0  0  4  0  0  0  0  0  0
   30.6209    2.8390   -3.9099 O   0  0  0  0  0  0  0  0  0  0  0  0
   30.6372    5.0657   -7.7871 O   0  0  0  0  0  0  0  0  0  0  0  0
  1 15  2  0
  1 25  1  0
  2  7  1  0
  2 16  1  0
  2 17  1  0
  3 13  1  0
  3 20  2  0
  3 21  1  0
  4  8  1  0
  4 14  2  0
  4 25  1  0
  5 28  2  0
  6 10  2  0
  6 27  1  0
  7 19  1  0
  7 22  1  0
  8 23  1  0
  9 14  1  0
  9 15  1  0
  9 19  1  0
 10 19  1  0
 11 22  1  0
 12 28  1  0
 13 22  1  0
 13 24  1  0
 13 30  1  0
 14 27  1  0
 17 29  1  0
 18 28  1  0
 23 26  2  0
 23 27  1  0
 28 29  1  0
M  END
>  <ID>  (1) 
conformer_0

$$$$
