
     RDKit          3D

 28 29  0  0  0  0  0  0  0  0999 V2000
   38.6725    4.7880   -4.1213 C   0  0  0  0  0  0  0  0  0  0  0  0
   31.6729    4.2347   -6.6801 C   0  0  0  0  0  0  0  0  0  0  0  0
   38.1483    4.1279   -5.2598 N   0  0  0  0  0  0  0  0  0  0  0  0
   31.5049    1.9505   -8.8512 O   0  0  0  0  0  0  0  0  0  0  0  0
   37.9366    6.0654   -3.6985 O   0  0  0  0  0  0  0  0  0  0  0  0
   38.3332    2.7649   -5.3994 C   0  0  0  0  0  0  0  0  0  0  0  0
   33.2240    4.1436   -7.0300 C   0  0  0  0  0  0  0  0  0  0  0  0
   29.3305    2.8328   -9.4302 C   0  0  0  0  0  0  0  0  0  0  0  0
   33.6327    4.0853   -4.6767 N   0  0  0  0  0  0  0  0  0  0  0  0
   37.0177    4.7314   -5.9167 C   0  0  0  0  0  0  0  0  0  0  0  0
   37.4710    2.0956   -6.1465 O   0  0  0  0  0  0  0  0  0  0  0  0
   29.1575    3.4912  -10.5309 O   0  0  0  0  0  0  0  0  0  0  0  0
   40.0791    2.3616   -3.7209 O   0  0  0  0  0  0  0  0  0  0  0  0
   34.3823    4.4313   -5.9851 C   0  0  0  0  0  0  0  0  0  0  0  0
   28.5086    1.9867   -9.0137 O   0  0  0  0  0  0  0  0  0  0  0  0
   31.8490    2.8586   -3.2590 O   0  0  0  0  0  0  0  0  0  0  0  0
   36.8413    5.0244   -7.4270 O   0  0  0  0  0  0  0  0  0  0  0  0
   31.1085    3.0603   -4.3150 C   0  0  0  0  0  0  0  0  0  0  0  0
   30.6518    3.0995   -8.7544 C   0  0  0  0  0  0  0  0  0  0  0  0
   32.5179    5.0699   -4.4638 C   0  0  0  0  0  0  0  0  0  0  0  0
   39.5292    2.1040   -4.9074 C   0  0  0  0  0  0  0  0  0  0  0  0
   31.3283    4.3483   -5.1521 C   0  0  0  0  0  0  0  0  0  0  0  0
   31.3129    5.5683   -7.2610 O   0  0  0  0  0  0  0  0  0  0  0  0
   40.0664    1.1283   -5.6633 O   0  0  0  0  0  0  0  0  0  0  0  0
   35.1896    4.5881   -3.5754 S   0  0  0  0  0  0  0  0  0  0  0  0
   30.5737    3.3048   -7.2133 C   0  0  0  0  0  0  0  0  0  0  0  0
   35.7722    4.6851   -5.2429 C   0  0  0  0  0  0  0  0  0  0  0  0
   30.0111    2.4551   -4.5283 O   0  0  0  0  0  0  0  0  0  0  0  0
  1  3  1  0
  1  5  1  0
  2  7  1  0
  2 22  1  0
  2 23  1  0
  2 26  1  0
  3  6  1  0
  3 10  1  0
  4 19  1  0
  6 11  2  0
  6 21  1  0
  7 14  1  0
  8 12  2  0
  8 15  1  0
  8 19  1  0
  9 14  1  0
  9 20  1  0
  9 25  1  0
 10 17  2  0
 10 27  1  0
 13 21  2  0
 14 27  2  0
 16 18  2  0
 18 22  1  0
 18 28  1  0
 19 26  1  0
 20 22  1  0
 21 24  1  0
 25 27  1  0
M  END
>  <ID>  (1) 
conformer_0

$$$$
