
     RDKit          3D

 28 29  0  0  0  0  0  0  0  0999 V2000
   29.7201    1.4562   -4.0559 P   0  0  0  0  0  4  0  0  0  0  0  0
   32.3348    5.2296   -7.5158 O   0  0  0  0  0  0  0  0  0  0  0  0
   36.7545    2.9076   -6.7866 N   0  0  0  0  0  0  0  0  0  0  0  0
   35.0850    4.7950   -6.6321 N   0  0  0  0  0  0  0  0  0  0  0  0
   30.3099    4.0561   -8.7097 N   0  0  0  0  0  0  0  0  0  0  0  0
   36.3144    4.1756   -6.3173 C   0  0  0  0  0  0  0  0  0  0  0  0
   32.3461    3.5681   -5.6980 C   0  0  0  0  0  0  0  0  0  0  0  0
   31.4344    2.0831   -8.3927 O   0  0  0  0  0  0  0  0  0  0  0  0
   31.0551    3.5499   -4.9299 C   0  0  0  0  0  0  0  0  0  0  0  0
   37.1257    4.8483   -5.4177 N   0  0  0  0  0  0  0  0  0  0  0  0
   38.5568    2.8378   -5.2306 C   0  0  0  0  0  0  0  0  0  0  0  0
   38.1867    6.3107   -4.1041 N   0  0  0  0  0  0  0  0  0  0  0  0
   32.1676    3.9186   -7.1239 C   0  0  0  0  0  0  0  0  0  0  0  0
   39.5769    2.1172   -4.6934 C   0  0  0  0  0  0  0  0  0  0  0  0
   39.8499    4.8569   -3.1900 N   0  0  0  0  0  0  0  0  0  0  0  0
   31.0493    3.2149   -7.8393 C   0  0  0  0  0  0  0  0  0  0  0  0
   33.3567    4.3881   -3.3360 Cl  0  0  0  0  0  0  0  0  0  0  0  0
   29.4451    1.3358   -5.5840 O   0  0  0  0  0  1  0  0  0  0  0  0
   29.9860    3.6061   -9.9380 O   0  0  0  0  0  0  0  0  0  0  0  0
   34.2090    5.3590   -5.6235 C   0  0  0  0  0  0  0  0  0  0  0  0
   38.8891    5.0663   -3.9592 C   0  0  0  0  0  0  0  0  0  0  0  0
   33.3286    4.3844   -4.9790 C   0  0  0  0  0  0  0  0  0  0  0  0
   37.0965    6.1534   -4.9996 C   0  0  0  0  0  0  0  0  0  0  0  0
   30.3135    0.1681   -3.5195 O   0  0  0  0  0  0  0  0  0  0  0  0
   38.2420    4.1502   -4.8386 C   0  0  0  0  0  0  0  0  0  0  0  0
   28.5115    1.9103   -3.3411 O   0  0  0  0  0  0  0  0  0  0  0  0
   30.9438    2.5657   -3.9014 O   0  0  0  0  0  0  0  0  0  0  0  0
   37.7108    2.2521   -6.1799 N   0  0  0  0  0  0  0  0  0  0  0  0
  1 18  2  0
  1 24  1  0
  1 26  1  0
  1 27  1  0
  2 13  1  0
  3  6  1  0
  3 28  2  0
  4  6  2  3
  4 20  1  0
  5 16  1  0
  5 19  1  0
  6 10  1  0
  7  9  1  0
  7 13  1  0
  7 22  1  0
  8 16  1  0
  9 27  1  0
 10 23  1  0
 10 25  1  0
 11 14  2  0
 11 25  1  0
 11 28  1  0
 12 21  1  0
 12 23  1  0
 13 16  1  0
 15 21  2  0
 17 22  1  0
 20 22  1  0
 21 25  1  0
M  END
>  <ID>  (1) 
conformer_0

$$$$
