
     RDKit          3D

 28 29  0  0  0  0  0  0  0  0999 V2000
   38.4588    3.7114   -4.6904 N   0  0  0  0  0  0  0  0  0  0  0  0
   29.4100    1.6169   -5.8505 N   0  0  0  0  0  0  0  0  0  0  0  0
   31.7538    4.6090   -5.2807 C   0  0  0  0  0  0  0  0  0  0  0  0
   33.8585    5.3348   -6.1076 C   0  0  0  0  0  0  0  0  0  0  0  0
   35.1614    5.2006   -6.6536 O   0  0  0  0  0  0  0  0  0  0  0  0
   30.8650    3.8427   -4.3297 C   0  0  0  0  0  0  0  0  0  0  0  0
   36.2236    4.6084   -6.0283 C   0  0  0  0  0  0  0  0  0  0  0  0
   36.8081    5.4302   -5.1769 N   0  0  0  0  0  0  0  0  0  0  0  0
   32.9488    4.7908   -7.2681 C   0  0  0  0  0  0  0  0  0  0  0  0
   27.8712    1.3513   -3.6481 O   0  0  0  0  0  0  0  0  0  0  0  0
   33.5758    5.0910   -8.4449 O   0  0  0  0  0  0  0  0  0  0  0  0
   30.5857    3.0466   -8.7273 C   0  0  0  0  0  0  0  0  0  0  0  0
   38.2618    1.6759   -5.8315 O   0  0  0  0  0  0  0  0  0  0  0  0
   37.7925    2.8913   -5.6133 C   0  0  0  0  0  0  0  0  0  0  0  0
   30.0267    1.4643   -4.6205 C   0  0  0  0  0  0  0  0  0  0  0  0
   39.6269    3.2572   -3.9396 C   0  0  0  0  0  0  0  0  0  0  0  0
   30.5349    5.2285   -7.9586 O   0  0  0  0  0  0  0  0  0  0  0  0
   37.9744    5.0221   -4.4707 C   0  0  0  0  0  0  0  0  0  0  0  0
   30.7378    3.9777   -7.6146 C   0  0  0  0  0  0  0  0  0  0  0  0
   31.1751    2.3841   -4.3753 C   0  0  0  0  0  0  0  0  0  0  0  0
   29.0977    1.1279   -3.5034 C   0  0  0  0  0  0  0  0  0  0  0  0
   29.5905    0.6758   -2.4590 O   0  0  0  0  0  0  0  0  0  0  0  0
   36.6541    3.3426   -6.3130 N   0  0  0  0  0  0  0  0  0  0  0  0
   31.8783    3.9409   -6.6325 C   0  0  0  0  0  0  0  0  0  0  0  0
   29.9822    3.6982   -9.9293 N   0  0  0  0  0  0  0  0  0  0  0  0
   32.4110    1.9833   -4.8303 O   0  0  0  0  0  0  0  0  0  0  0  0
   33.1218    4.9587   -4.9133 O   0  0  0  0  0  0  0  0  0  0  0  0
   38.6012    5.8221   -3.6773 O   0  0  0  0  0  0  0  0  0  0  0  0
  1 14  1  0
  1 16  1  0
  1 18  1  0
  2 15  1  0
  3  6  1  0
  3 24  1  0
  3 27  1  0
  4  5  1  0
  4  9  1  0
  4 27  1  0
  5  7  1  0
  6 20  1  0
  7  8  2  0
  7 23  1  0
  8 18  1  0
  9 11  1  0
  9 24  1  0
 10 21  2  0
 12 19  1  0
 12 25  1  0
 13 14  2  0
 14 23  1  0
 15 20  1  0
 15 21  1  0
 17 19  1  0
 18 28  2  0
 19 24  1  0
 20 26  1  0
 21 22  1  0
M  END
>  <ID>  (1) 
conformer_0

$$$$
