
     RDKit          3D

 25 27  0  0  0  0  0  0  0  0999 V2000
   32.0454    1.8667   -6.2444 O   0  0  0  0  0  0  0  0  0  0  0  0
   30.6215    3.1239   -8.4871 C   0  0  0  0  0  0  0  0  0  0  0  0
   38.4842    3.7649   -4.8653 C   0  0  0  0  0  0  0  0  0  0  0  0
   32.5565    4.4351   -6.7531 C   0  0  0  0  0  0  0  0  0  0  0  0
   36.5920    5.2393   -4.4486 C   0  0  0  0  0  0  0  0  0  0  0  0
   36.2595    3.8038   -6.3528 C   0  0  0  0  0  0  0  0  0  0  0  0
   34.8679    4.1587   -6.3365 C   0  0  0  0  0  0  0  0  0  0  0  0
   38.8147    5.8578   -3.6644 C   0  0  0  0  0  0  0  0  0  0  0  0
   29.9134    1.1024   -4.4611 O   0  0  0  0  0  0  0  0  0  0  0  0
   34.3425    4.6622   -5.2204 C   0  0  0  0  0  0  0  0  0  0  0  0
   30.2008    3.7675   -9.6484 O   0  0  0  0  0  0  0  0  0  0  0  0
   36.7161    3.2625   -7.4336 O   0  0  0  0  0  0  0  0  0  0  0  0
   30.6660    2.3431   -4.2595 C   0  0  0  0  0  0  0  0  0  0  0  0
   31.3671    3.6858   -4.7827 C   0  0  0  0  0  0  0  0  0  0  0  0
   31.1727    3.9804   -7.3042 C   0  0  0  0  0  0  0  0  0  0  0  0
   38.2312    1.4961   -5.6781 O   0  0  0  0  0  0  0  0  0  0  0  0
   35.2022    5.3222   -4.3060 C   0  0  0  0  0  0  0  0  0  0  0  0
   39.0461    2.4351   -5.0564 C   0  0  0  0  0  0  0  0  0  0  0  0
   37.4539    6.1197   -3.7795 C   0  0  0  0  0  0  0  0  0  0  0  0
   37.1620    4.1949   -5.2534 C   0  0  0  0  0  0  0  0  0  0  0  0
   33.8307    4.1414   -7.3868 O   0  0  0  0  0  0  0  0  0  0  0  0
   30.8974    2.8416   -6.0015 C   0  0  0  0  0  0  0  0  0  0  0  0
   30.6665    5.2815   -7.6753 O   0  0  0  0  0  0  0  0  0  0  0  0
   32.7811    4.3855   -5.2809 O   0  0  0  0  0  0  0  0  0  0  0  0
   39.3296    4.6501   -4.1519 C   0  0  0  0  0  0  0  0  0  0  0  0
  1 22  1  0
  2 11  1  0
  2 15  1  0
  3 18  2  3
  3 20  1  0
  3 25  1  0
  4 15  1  0
  4 21  1  0
  4 24  1  0
  5 17  1  0
  5 19  1  0
  5 20  1  0
  6  7  2  0
  6 12  1  0
  6 20  1  0
  7 10  1  0
  7 21  1  0
  8 19  2  0
  8 25  1  0
  9 13  1  0
 10 17  2  0
 10 24  1  0
 13 14  1  0
 14 22  1  0
 15 22  1  0
 15 23  1  0
 16 18  1  0
M  END
>  <ID>  (1) 
conformer_0

$$$$
