
     RDKit          3D

 24 24  0  0  0  0  0  0  0  0999 V2000
   37.4150    4.6327   -5.2103 C   0  0  0  0  0  0  0  0  0  0  0  0
   38.3561    3.8077   -4.6833 N   0  0  0  0  0  0  0  0  0  0  0  0
   32.4351    2.3658   -6.6606 C   0  0  0  0  0  0  0  0  0  0  0  0
   34.3858    4.9569   -4.9233 C   0  0  0  0  0  0  0  0  0  0  0  0
   36.3821    4.0459   -6.0868 C   0  0  0  0  0  0  0  0  0  0  0  0
   35.1760    4.7136   -6.0379 N   0  0  0  0  0  0  0  0  0  0  0  0
   37.4316    5.9824   -4.9265 C   0  0  0  0  0  0  0  0  0  0  0  0
   31.6073    3.6512   -6.5623 C   0  0  0  0  0  0  0  0  0  0  0  0
   29.5270    3.1171  -10.7729 O   0  0  0  0  0  0  0  0  0  0  0  0
   30.4741    2.5767   -8.6865 C   0  0  0  0  0  0  0  0  0  0  0  0
   39.2779    4.2769   -3.8210 C   0  0  0  0  0  0  0  0  0  0  0  0
   31.7752    4.4299   -5.2701 C   0  0  0  0  0  0  0  0  0  0  0  0
   29.2744    2.7195   -9.5747 C   0  0  0  0  0  0  0  0  0  0  0  0
   33.6450    4.6689   -2.6075 F   0  0  0  0  0  0  0  0  0  0  0  0
   38.4200    6.4425   -4.0671 C   0  0  0  0  0  0  0  0  0  0  0  0
   34.7655    4.5104   -3.5683 C   0  0  0  0  0  0  0  0  0  0  0  0
   36.5772    3.0669   -6.8261 O   0  0  0  0  0  0  0  0  0  0  0  0
   30.5650    3.6933   -7.6526 C   0  0  0  0  0  0  0  0  0  0  0  0
   28.1489    2.1962   -9.1968 O   0  0  0  0  0  0  0  0  0  0  0  0
   31.4499    3.6969   -4.1125 O   0  0  0  0  0  0  0  0  0  0  0  0
   32.9236    5.4421   -5.1201 C   0  0  0  0  0  0  0  0  0  0  0  0
   30.3642    4.8479   -8.2155 O   0  0  0  0  0  0  0  0  0  0  0  0
   39.3488    5.5952   -3.5069 C   0  0  0  0  0  0  0  0  0  0  0  0
   34.5763    4.9707   -7.3705 C   0  0  0  0  0  0  0  0  0  0  0  0
  1  2  2  0
  1  5  1  0
  1  7  1  0
  2 11  1  0
  3  8  1  0
  4  6  1  0
  4 16  1  0
  4 21  1  0
  5  6  1  0
  5 17  2  0
  6 24  1  0
  7 15  2  0
  8 12  1  0
  8 18  1  0
  9 13  2  0
 10 13  1  0
 10 18  1  0
 11 23  2  0
 12 20  1  0
 12 21  1  0
 13 19  1  0
 14 16  1  0
 15 23  1  0
 18 22  1  0
M  END
>  <ID>  (1) 
conformer_0

$$$$
