
     RDKit          3D

 26 28  0  0  0  0  0  0  0  0999 V2000
   36.1286    4.5842   -4.7076 C   0  0  0  0  0  0  0  0  0  0  0  0
   38.4488    3.0434   -5.3383 N   0  0  0  0  0  0  0  0  0  0  0  0
   39.3673    3.3819   -4.5560 C   0  0  0  0  0  0  0  0  0  0  0  0
   34.8772    4.9302   -4.2447 C   0  0  0  0  0  0  0  0  0  0  0  0
   35.0397    3.7585   -6.7455 C   0  0  0  0  0  0  0  0  0  0  0  0
   29.5782    3.2956  -10.2519 N   0  0  0  0  0  0  0  0  0  0  0  0
   30.2829    2.9250   -9.1593 C   0  0  0  0  0  0  0  0  0  0  0  0
   32.5198    4.3547   -7.0856 C   0  0  0  0  0  0  0  0  0  0  0  0
   31.4076    3.3088   -7.0318 C   0  0  0  0  0  0  0  0  0  0  0  0
   28.6549    3.9027  -10.8425 O   0  0  0  0  0  0  0  0  0  0  0  0
   33.7318    4.5841   -4.9284 C   0  0  0  0  0  0  0  0  0  0  0  0
   31.2192    2.4649   -3.3679 O   0  0  0  0  0  0  0  0  0  0  0  0
   30.8263    2.8714   -5.6708 C   0  0  0  0  0  0  0  0  0  0  0  0
   33.7950    4.2177   -6.2682 C   0  0  0  0  0  0  0  0  0  0  0  0
   37.3870    3.0858   -6.0519 C   0  0  0  0  0  0  0  0  0  0  0  0
   36.1740    3.7894   -5.8973 C   0  0  0  0  0  0  0  0  0  0  0  0
   37.2125    4.9745   -4.0535 N   0  0  0  0  0  0  0  0  0  0  0  0
   31.0065    5.2373   -4.4594 O   0  0  0  0  0  0  0  0  0  0  0  0
   30.9968    1.9450   -9.2598 O   0  0  0  0  0  0  0  0  0  0  0  0
   38.3290    5.1583   -3.5268 C   0  0  0  0  0  0  0  0  0  0  0  0
   30.3325    3.6627   -8.0079 N   0  0  0  0  0  0  0  0  0  0  0  0
   31.8144    3.0178   -4.4931 C   0  0  0  0  0  0  0  0  0  0  0  0
   39.4408    4.3707   -3.6502 N   0  0  0  0  0  0  0  0  0  0  0  0
   30.3369    1.5942   -5.6571 O   0  0  0  0  0  0  0  0  0  0  0  0
   32.0699    5.6631   -7.2517 O   0  0  0  0  0  0  0  0  0  0  0  0
   32.2895    4.4623   -4.2849 C   0  0  0  0  0  0  0  0  0  0  0  0
  1  4  2  0
  1 16  1  0
  1 17  1  0
  2  3  1  0
  2 15  1  0
  3 23  1  0
  4 11  1  0
  5 14  2  0
  5 16  1  0
  6  7  1  0
  6 10  1  0
  7 19  2  0
  7 21  1  0
  8  9  1  0
  8 14  1  0
  8 25  1  0
  9 13  1  0
  9 21  1  0
 11 14  1  0
 11 26  1  0
 12 22  1  0
 13 22  1  0
 13 24  1  0
 15 16  2  0
 17 20  1  0
 18 26  1  0
 20 23  2  0
 22 26  1  0
M  END
>  <ID>  (1) 
conformer_0

$$$$
