
     RDKit          3D

 29 32  0  0  0  0  0  0  0  0999 V2000
   38.3734    2.0177   -5.7413 S   0  0  0  0  0  0  0  0  0  0  0  0
   29.2333    1.5073  -10.2948 O   0  0  0  0  0  0  0  0  0  0  0  0
   33.2824    4.6434   -4.8503 C   0  0  0  0  0  0  0  0  0  0  0  0
   34.8551    4.6816   -6.5438 N   0  0  0  0  0  0  0  0  0  0  0  0
   36.8386    3.4512   -7.1980 N   0  0  0  0  0  0  0  0  0  0  0  0
   32.2416    3.5975   -4.4093 C   0  0  0  0  0  0  0  0  0  0  0  0
   38.5705    4.0079   -4.0911 C   0  0  0  0  0  0  0  0  0  0  0  0
   29.0096    3.6473  -10.7646 O   0  0  0  0  0  0  0  0  0  0  0  0
   29.4432    2.7199   -9.9774 C   0  0  0  0  0  0  0  0  0  0  0  0
   39.4340    4.8480   -3.2951 C   0  0  0  0  0  0  0  0  0  0  0  0
   31.4991    4.1990   -6.7993 C   0  0  0  0  0  0  0  0  0  0  0  0
   35.9530    4.5217   -4.3707 C   0  0  0  0  0  0  0  0  0  0  0  0
   32.6417    5.1584   -6.1501 C   0  0  0  0  0  0  0  0  0  0  0  0
   31.3244    3.3758   -8.2106 C   0  0  0  0  0  0  0  0  0  0  0  0
   33.6597    5.2789   -7.2144 O   0  0  0  0  0  0  0  0  0  0  0  0
   37.3402    3.2909   -5.9663 C   0  0  0  0  0  0  0  0  0  0  0  0
   38.0643    6.6905   -4.0945 C   0  0  0  0  0  0  0  0  0  0  0  0
   31.3973    3.1367   -5.6849 C   0  0  0  0  0  0  0  0  0  0  0  0
   31.4854    2.7314   -3.3545 C   0  0  0  0  0  0  0  0  0  0  0  0
   31.8836    1.8419   -6.1015 O   0  0  0  0  0  0  0  0  0  0  0  0
   29.8363    3.1545   -8.5758 C   0  0  0  0  0  0  0  0  0  0  0  0
   35.7925    4.1454   -7.3535 C   0  0  0  0  0  0  0  0  0  0  0  0
   39.2908    2.7886   -4.5827 C   0  0  0  0  0  0  0  0  0  0  0  0
   39.3744    6.3086   -3.4619 C   0  0  0  0  0  0  0  0  0  0  0  0
   34.8550    4.6260   -5.2127 C   0  0  0  0  0  0  0  0  0  0  0  0
   29.1915    2.2915   -7.6685 O   0  0  0  0  0  0  0  0  0  0  0  0
   30.5458    5.2099   -7.0716 O   0  0  0  0  0  0  0  0  0  0  0  0
   37.2143    4.0448   -4.7979 C   0  0  0  0  0  0  0  0  0  0  0  0
   33.3482    4.1811   -3.4415 O   0  0  0  0  0  0  0  0  0  0  0  0
  1 16  1  0
  1 23  1  0
  2  9  2  0
  3  6  1  0
  3 13  1  0
  3 25  1  0
  3 29  1  0
  4 15  1  0
  4 22  1  0
  4 25  1  0
  5 16  1  0
  5 22  2  0
  6 18  1  0
  6 19  1  0
  7 10  1  0
  7 23  1  0
  7 28  1  0
  8  9  1  0
  9 21  1  0
 10 24  1  0
 11 13  1  0
 11 14  1  0
 11 18  1  0
 11 27  1  0
 12 25  1  0
 12 28  1  0
 13 15  1  0
 14 21  1  0
 16 28  1  0
 17 24  1  0
 18 20  1  0
 21 26  1  0
M  END
>  <ID>  (1) 
conformer_0

$$$$
