
     RDKit          3D

 35 38  0  0  0  0  0  0  0  0999 V2000
   32.2649    3.8742   -7.1055 C   0  0  0  0  0  0  0  0  0  0  0  0
   36.2542    6.4132   -5.9095 C   0  0  0  0  0  0  0  0  0  0  0  0
   37.2644    1.9243   -4.6328 F   0  0  0  0  0  0  0  0  0  0  0  0
   30.9479    3.8159   -7.9194 C   0  0  0  0  0  0  0  0  0  0  0  0
   37.5625    6.2730   -5.2306 C   0  0  0  0  0  0  0  0  0  0  0  0
   35.7289    4.4399   -6.9774 C   0  0  0  0  0  0  0  0  0  0  0  0
   39.8651    3.6801   -3.4785 C   0  0  0  0  0  0  0  0  0  0  0  0
   39.3541    6.0566   -3.1509 O   0  0  0  0  0  0  0  0  0  0  0  0
   34.3896    5.0277   -6.7618 C   0  0  0  0  0  0  0  0  0  0  0  0
   30.8238    3.1182   -5.3298 C   0  0  0  0  0  0  0  0  0  0  0  0
   31.9238    4.1169   -5.6505 C   0  0  0  0  0  0  0  0  0  0  0  0
   33.1570    3.6516   -3.5138 C   0  0  0  0  0  0  0  0  0  0  0  0
   35.0793    6.4902   -4.9217 C   0  0  0  0  0  0  0  0  0  0  0  0
   30.0431    3.0167   -8.8225 C   0  0  0  0  0  0  0  0  0  0  0  0
   28.8097    1.9217   -3.7442 O   0  0  0  0  0  0  0  0  0  0  0  0
   30.2206    0.3315   -4.2849 O   0  0  0  0  0  0  0  0  0  0  0  0
   31.0594    2.4859   -3.9886 C   0  0  0  0  0  0  0  0  0  0  0  0
   38.1682    4.9953   -4.8479 C   0  0  0  0  0  0  0  0  0  0  0  0
   34.0473    5.4045   -5.3383 C   0  0  0  0  0  0  0  0  0  0  0  0
   39.5046    2.6512   -4.2793 C   0  0  0  0  0  0  0  0  0  0  0  0
   29.2193    2.2410   -8.3370 O   0  0  0  0  0  0  0  0  0  0  0  0
   33.0460    4.4766   -4.7649 C   0  0  0  0  0  0  0  0  0  0  0  0
   37.0323    3.8199   -6.7559 C   0  0  0  0  0  0  0  0  0  0  0  0
   40.1557    2.4818   -3.3063 O   0  0  0  0  0  0  0  0  0  0  0  0
   29.9836    3.4023  -10.0509 O   0  0  0  0  0  0  0  0  0  0  0  0
   34.0991    4.1574   -2.6740 O   0  0  0  0  0  0  0  0  0  0  0  0
   37.2015    2.7280   -7.5052 O   0  0  0  0  0  0  0  0  0  0  0  0
   30.4915    5.1492   -7.9207 O   0  0  0  0  0  0  0  0  0  0  0  0
   38.0469    3.8850   -5.6857 C   0  0  0  0  0  0  0  0  0  0  0  0
   32.2308    2.6773   -3.2474 O   0  0  0  0  0  0  0  0  0  0  0  0
   39.0994    4.8759   -3.7361 C   0  0  0  0  0  0  0  0  0  0  0  0
   33.2931    4.7649   -7.6322 C   0  0  0  0  0  0  0  0  0  0  0  0
   39.6374    2.0820   -5.5180 C   0  0  0  0  0  0  0  0  0  0  0  0
   38.3819    2.5830   -5.0520 C   0  0  0  0  0  0  0  0  0  0  0  0
   29.9509    1.4479   -3.8421 C   0  0  0  0  0  0  0  0  0  0  0  0
  1  4  1  0
  1 11  1  0
  1 32  1  0
  2  5  1  0
  2 13  1  0
  3 34  1  0
  4 14  1  0
  4 28  1  0
  5 18  1  0
  6  9  2  0
  6 23  2  0
  7 24  1  0
  7 31  1  0
  8 31  1  0
  9 19  1  0
  9 32  1  0
 10 11  1  0
 10 17  1  0
 11 22  1  0
 12 22  1  0
 12 26  2  0
 12 30  1  0
 13 19  1  0
 14 21  2  0
 14 25  1  0
 15 35  2  0
 16 35  1  0
 17 30  1  0
 17 35  1  0
 18 29  1  0
 18 31  2  0
 19 22  1  0
 20 24  1  0
 20 33  2  0
 20 34  1  0
 23 27  1  0
 23 29  1  0
 29 34  1  0
M  END
>  <ID>  (1) 
conformer_0

$$$$
