
     RDKit          3D

 35 36  0  0  0  0  0  0  0  0999 V2000
   28.2668    0.7051   -1.9212 O   0  0  0  0  0  0  0  0  0  0  0  0
   34.3331    5.4290   -7.4464 Cl  0  0  0  0  0  0  0  0  0  0  0  0
   26.3735   -0.1273   -2.7176 O   0  0  0  0  0  0  0  0  0  0  0  0
   39.4211    2.1360   -4.6783 O   0  0  0  0  0  0  0  0  0  0  0  0
   38.2034    6.0971   -4.0297 C   0  0  0  0  0  0  0  0  0  0  0  0
   31.2155    5.5637   -7.3464 O   0  0  0  0  0  0  0  0  0  0  0  0
   37.2813    5.1285   -4.6931 C   0  0  0  0  0  0  0  0  0  0  0  0
   39.0524    3.3231   -4.5093 C   0  0  0  0  0  0  0  0  0  0  0  0
   28.3911   -0.7940   -3.7795 C   0  0  0  0  0  0  0  0  0  0  0  0
   29.3105    0.0608   -4.4574 N   0  0  0  0  0  0  0  0  0  0  0  0
   38.0407    4.0152   -5.3482 C   0  0  0  0  0  0  0  0  0  0  0  0
   34.8737    5.0914   -4.8092 C   0  0  0  0  0  0  0  0  0  0  0  0
   39.4774    5.4735   -3.4880 C   0  0  0  0  0  0  0  0  0  0  0  0
   28.2385    1.4816   -5.9263 O   0  0  0  0  0  0  0  0  0  0  0  0
   30.2312    1.6094  -10.1048 O   0  0  0  0  0  0  0  0  0  0  0  0
   36.1225    5.7168   -5.2315 O   0  0  0  0  0  0  0  0  0  0  0  0
   36.8243    3.8584   -7.5028 C   0  0  0  0  0  0  0  0  0  0  0  0
   34.7026    4.7028   -3.5198 C   0  0  0  0  0  0  0  0  0  0  0  0
   29.8498    2.3752   -4.4440 C   0  0  0  0  0  0  0  0  0  0  0  0
   29.7745    2.7412   -9.9266 C   0  0  0  0  0  0  0  0  0  0  0  0
   28.9746    1.2798   -4.9410 C   0  0  0  0  0  0  0  0  0  0  0  0
   31.7110    4.3104   -7.0672 C   0  0  0  0  0  0  0  0  0  0  0  0
   27.6169   -0.0155   -2.7549 C   0  0  0  0  0  0  0  0  0  0  0  0
   32.5291    3.4754   -3.5434 C   0  0  0  0  0  0  0  0  0  0  0  0
   30.0453    3.5556   -8.7461 C   0  0  0  0  0  0  0  0  0  0  0  0
   39.4532    4.0293   -3.3187 N   0  0  0  0  0  0  0  0  0  0  0  0
   32.0838    3.4316   -4.8371 C   0  0  0  0  0  0  0  0  0  0  0  0
   37.1300    3.2446   -6.2466 C   0  0  0  0  0  0  0  0  0  0  0  0
   32.6136    4.2370   -5.8441 C   0  0  0  0  0  0  0  0  0  0  0  0
   33.8491    4.8372   -5.8160 C   0  0  0  0  0  0  0  0  0  0  0  0
   31.2171    3.2240   -7.8957 C   0  0  0  0  0  0  0  0  0  0  0  0
   29.1231    3.3605  -10.8923 O   0  0  0  0  0  0  0  0  0  0  0  0
   36.5168    2.3095   -5.6276 O   0  0  0  0  0  0  0  0  0  0  0  0
   33.6365    4.0149   -3.0025 C   0  0  0  0  0  0  0  0  0  0  0  0
   30.9944    2.5188   -5.3271 C   0  0  0  0  0  0  0  0  0  0  0  0
  1 23  2  0
  2 30  1  0
  3 23  1  0
  4  8  2  0
  5  7  1  0
  5 13  1  0
  6 22  1  0
  7 11  1  0
  7 16  1  0
  8 11  1  0
  8 26  1  0
  9 10  1  0
  9 23  1  0
 10 21  1  0
 11 28  1  0
 12 16  1  0
 12 18  2  0
 12 30  1  0
 13 26  1  0
 14 21  2  0
 15 20  2  0
 17 28  1  0
 18 34  1  0
 19 21  1  0
 19 35  1  0
 20 25  1  0
 20 32  1  0
 22 29  1  0
 22 31  2  3
 24 27  1  0
 24 34  2  0
 25 31  1  0
 27 29  1  0
 27 35  1  0
 28 33  2  0
 29 30  2  0
M  END
>  <ID>  (1) 
conformer_0

$$$$
