
     RDKit          3D

 31 34  0  0  0  0  0  0  0  0999 V2000
   29.7589    1.1935   -4.9060 C   0  0  0  0  0  0  0  0  0  0  0  0
   27.4018    1.6109  -11.0911 O   0  0  0  0  0  0  0  0  0  0  0  0
   28.1455    2.5955  -11.0341 C   0  0  0  0  0  0  0  0  0  0  0  0
   32.0558    3.8793   -5.9411 C   0  0  0  0  0  0  0  0  0  0  0  0
   33.5016    5.2413   -8.2423 O   0  0  0  0  0  0  0  0  0  0  0  0
   29.2486    2.6372   -9.9572 C   0  0  0  0  0  0  0  0  0  0  0  0
   36.7490    3.5516   -5.4755 C   0  0  0  0  0  0  0  0  0  0  0  0
   30.2307    1.9486   -5.8701 C   0  0  0  0  0  0  0  0  0  0  0  0
   37.7369    4.0390   -4.7172 C   0  0  0  0  0  0  0  0  0  0  0  0
   29.2299    2.9719   -8.4695 C   0  0  0  0  0  0  0  0  0  0  0  0
   37.0194    2.4614   -6.1215 N   0  0  0  0  0  0  0  0  0  0  0  0
   39.1681    2.3243   -5.0802 N   0  0  0  0  0  0  0  0  0  0  0  0
   38.7592    5.3780   -3.4671 C   0  0  0  0  0  0  0  0  0  0  0  0
   30.2897    1.5802   -3.6997 N   0  0  0  0  0  0  0  0  0  0  0  0
   35.7208    4.4105   -5.2794 N   0  0  0  0  0  0  0  0  0  0  0  0
   38.1999    1.8574   -5.9259 C   0  0  0  0  0  0  0  0  0  0  0  0
   34.1946    4.4998   -7.3012 C   0  0  0  0  0  0  0  0  0  0  0  0
   30.9253    5.6498   -7.0935 O   0  0  0  0  0  0  0  0  0  0  0  0
   31.1785    2.8508   -5.3203 N   0  0  0  0  0  0  0  0  0  0  0  0
   39.6213    4.3527   -3.7410 C   0  0  0  0  0  0  0  0  0  0  0  0
   33.4364    4.5957   -3.8533 O   0  0  0  0  0  0  0  0  0  0  0  0
   31.2013    2.5659   -3.9951 C   0  0  0  0  0  0  0  0  0  0  0  0
   28.2563    3.5296  -11.8994 O   0  0  0  0  0  0  0  0  0  0  0  0
   31.2724    4.4839   -7.1088 C   0  0  0  0  0  0  0  0  0  0  0  0
   37.4754    5.2756   -4.0577 N   0  0  0  0  0  0  0  0  0  0  0  0
   38.9522    3.4566   -4.5131 N   0  0  0  0  0  0  0  0  0  0  0  0
   30.1573    1.5507  -10.1240 N   0  0  0  0  0  0  0  0  0  0  0  0
   36.1852    5.3963   -4.5117 C   0  0  0  0  0  0  0  0  0  0  0  0
   34.4480    4.2347   -5.9151 C   0  0  0  0  0  0  0  0  0  0  0  0
   30.5539    3.6046   -8.0236 N   0  0  0  0  0  0  0  0  0  0  0  0
   33.2056    4.2962   -5.1369 C   0  0  0  0  0  0  0  0  0  0  0  0
  1  8  1  0
  1 14  1  0
  2  3  2  0
  3  6  1  0
  3 23  1  0
  4 19  1  0
  4 24  1  0
  4 31  1  0
  5 17  1  0
  6 10  1  0
  6 27  1  0
  7  9  1  0
  7 11  2  0
  7 15  1  0
  8 19  1  0
  9 25  1  0
  9 26  1  0
 10 30  1  0
 11 16  1  0
 12 16  2  0
 12 26  1  0
 13 20  1  0
 13 25  1  0
 14 22  1  0
 15 28  1  0
 15 29  1  0
 17 29  1  0
 18 24  2  0
 19 22  1  0
 20 26  1  0
 21 31  1  0
 24 30  1  0
 25 28  1  0
 29 31  1  0
M  END
>  <ID>  (1) 
conformer_0

$$$$
