
     RDKit          3D

 27 29  0  0  0  0  0  0  0  0999 V2000
   31.8455    3.0854   -7.9730 O   0  0  0  0  0  0  0  0  0  0  0  0
   37.6497    4.2350   -4.8400 C   0  0  0  0  0  0  0  0  0  0  0  0
   29.4006    2.4372   -7.7890 O   0  0  0  0  0  1  0  0  0  0  0  0
   39.0332    5.8841   -3.5713 C   0  0  0  0  0  0  0  0  0  0  0  0
   36.5882    5.0413   -4.8413 N   0  0  0  0  0  0  0  0  0  0  0  0
   30.0246    1.5568   -4.2099 P   0  0  0  0  0  4  0  0  0  0  0  0
   30.0859    3.4009   -9.9715 O   0  0  0  0  0  0  0  0  0  0  0  0
   31.2868    3.6601   -5.4233 C   0  0  0  0  0  0  0  0  0  0  0  0
   30.3269    3.4386   -8.4159 P   0  0  0  0  0  4  0  0  0  0  0  0
   32.2714    3.5058   -6.6107 C   0  0  0  0  0  0  0  0  0  0  0  0
   30.6725    1.0297   -5.5173 O   0  0  0  0  0  1  0  0  0  0  0  0
   30.5111    0.6722   -3.1308 O   0  0  0  0  0  0  0  0  0  0  0  0
   33.1953    4.6417   -6.6695 C   0  0  0  0  0  0  0  0  0  0  0  0
   30.2027    4.8904   -7.9864 O   0  0  0  0  0  0  0  0  0  0  0  0
   35.7945    3.7109   -6.5808 C   0  0  0  0  0  0  0  0  0  0  0  0
   34.1105    5.0895   -5.4925 C   0  0  0  0  0  0  0  0  0  0  0  0
   39.7048    3.4972   -3.7929 C   0  0  0  0  0  0  0  0  0  0  0  0
   30.5643    3.0351   -4.1825 O   0  0  0  0  0  0  0  0  0  0  0  0
   33.4098    4.1334   -4.5066 O   0  0  0  0  0  0  0  0  0  0  0  0
   36.7663    2.9202   -6.5846 N   0  0  0  0  0  0  0  0  0  0  0  0
   32.0260    4.6961   -4.5884 C   0  0  0  0  0  0  0  0  0  0  0  0
   35.5802    4.5858   -5.6375 N   0  0  0  0  0  0  0  0  0  0  0  0
   38.6847    2.1430   -5.3818 C   0  0  0  0  0  0  0  0  0  0  0  0
   39.5975    2.3220   -4.4668 N   0  0  0  0  0  0  0  0  0  0  0  0
   37.6629    3.0911   -5.6235 C   0  0  0  0  0  0  0  0  0  0  0  0
   28.4905    1.7213   -4.1086 O   0  0  0  0  0  0  0  0  0  0  0  0
   38.8119    4.5219   -4.0091 C   0  0  0  0  0  0  0  0  0  0  0  0
  1  9  1  0
  1 10  1  0
  2  5  1  0
  2 25  2  0
  2 27  1  0
  3  9  2  0
  4 27  1  0
  5 22  1  0
  6 11  2  0
  6 12  1  0
  6 18  1  0
  6 26  1  0
  7  9  1  0
  8 10  1  0
  8 18  1  0
  8 21  1  0
  9 14  1  0
 10 13  1  0
 13 16  1  0
 15 20  2  0
 15 22  1  0
 16 19  1  0
 16 22  1  0
 17 24  1  0
 17 27  2  0
 19 21  1  0
 20 25  1  0
 23 24  2  0
 23 25  1  0
M  END
>  <ID>  (1) 
conformer_0

$$$$
