
     RDKit          3D

 27 29  0  0  0  0  0  0  0  0999 V2000
   29.2739    3.6984  -10.3982 O   0  0  0  0  0  0  0  0  0  0  0  0
   37.8270    6.3221   -3.7329 O   0  0  0  0  0  0  0  0  0  0  0  0
   30.9266    3.8871   -6.1369 C   0  0  0  0  0  0  0  0  0  0  0  0
   29.7463    1.4919   -3.3891 O   0  0  0  0  0  0  0  0  0  0  0  0
   32.9851    4.6925   -4.9479 C   0  0  0  0  0  0  0  0  0  0  0  0
   31.2525    1.0835   -4.9658 O   0  0  0  0  0  0  0  0  0  0  0  0
   31.8560    3.8277   -5.0124 C   0  0  0  0  0  0  0  0  0  0  0  0
   37.3818    3.3275   -5.8480 C   0  0  0  0  0  0  0  0  0  0  0  0
   30.0428    2.0219   -9.2114 O   0  0  0  0  0  0  0  0  0  0  0  0
   30.6979    1.7872   -4.1155 C   0  0  0  0  0  0  0  0  0  0  0  0
   38.3231    2.3331   -5.5986 N   0  0  0  0  0  0  0  0  0  0  0  0
   33.6168    5.0324   -3.7979 O   0  0  0  0  0  0  0  0  0  0  0  0
   35.0585    4.7599   -6.2450 N   0  0  0  0  0  0  0  0  0  0  0  0
   36.5755    3.1290   -6.9558 N   0  0  0  0  0  0  0  0  0  0  0  0
   31.3941    3.0966   -3.7848 C   0  0  0  0  0  0  0  0  0  0  0  0
   37.2106    4.5288   -5.1293 C   0  0  0  0  0  0  0  0  0  0  0  0
   39.2507    2.3469   -4.7254 C   0  0  0  0  0  0  0  0  0  0  0  0
   38.0572    5.1374   -4.0716 C   0  0  0  0  0  0  0  0  0  0  0  0
   39.1663    4.4482   -3.5338 N   0  0  0  0  0  0  0  0  0  0  0  0
   36.0666    5.4132   -5.4881 C   0  0  0  0  0  0  0  0  0  0  0  0
   31.4926    4.1618   -7.4515 C   0  0  0  0  0  0  0  0  0  0  0  0
   32.8503    4.6964   -7.4167 C   0  0  0  0  0  0  0  0  0  0  0  0
   35.5486    3.9293   -7.2229 C   0  0  0  0  0  0  0  0  0  0  0  0
   29.9658    3.2222   -9.3638 C   0  0  0  0  0  0  0  0  0  0  0  0
   39.6592    3.2801   -3.8513 C   0  0  0  0  0  0  0  0  0  0  0  0
   33.6528    5.0407   -6.2148 C   0  0  0  0  0  0  0  0  0  0  0  0
   30.6164    4.1279   -8.5515 N   0  0  0  0  0  0  0  0  0  0  0  0
  1 24  2  0
  2 18  2  0
  3  7  1  0
  3 21  1  0
  4 10  2  0
  5  7  1  0
  5 12  1  0
  5 26  1  0
  6 10  1  0
  7 15  1  0
  8 11  1  0
  8 14  2  0
  8 16  1  0
  9 24  1  0
 10 15  1  0
 11 17  2  0
 13 20  1  0
 13 23  1  0
 13 26  1  0
 14 23  1  0
 16 18  1  0
 16 20  1  0
 17 25  1  0
 18 19  1  0
 19 25  2  0
 21 22  2  0
 21 27  1  0
 22 26  1  0
 24 27  1  0
M  END
>  <ID>  (1) 
conformer_0

$$$$
