
     RDKit          3D

 28 31  0  0  0  0  0  0  0  0999 V2000
   32.8969    4.6213   -5.3350 C   0  0  0  0  0  0  0  0  0  0  0  0
   31.4345    4.5405   -7.0319 C   0  0  0  0  0  0  0  0  0  0  0  0
   34.8300    3.2616   -5.3757 O   0  0  0  0  0  0  0  0  0  0  0  0
   29.3559    3.6124  -10.3628 N   0  0  0  0  0  0  0  0  0  0  0  0
   28.4299    3.3061  -11.4674 N   0  0  0  0  0  0  0  0  0  0  0  0
   39.7874    3.0420   -3.8551 N   0  0  0  0  0  0  0  0  0  0  0  0
   39.3793    4.2156   -3.2815 C   0  0  0  0  0  0  0  0  0  0  0  0
   30.4625    1.6727   -9.9477 O   0  0  0  0  0  0  0  0  0  0  0  0
   38.2833    4.9103   -3.7862 C   0  0  0  0  0  0  0  0  0  0  0  0
   39.1375    2.5128   -4.9120 C   0  0  0  0  0  0  0  0  0  0  0  0
   34.6124    5.0261   -7.0215 C   0  0  0  0  0  0  0  0  0  0  0  0
   31.2103    3.6651   -8.0718 O   0  0  0  0  0  0  0  0  0  0  0  0
   31.8097    3.0078   -3.4042 O   0  0  0  0  0  0  0  0  0  0  0  0
   38.0363    3.1755   -5.4265 C   0  0  0  0  0  0  0  0  0  0  0  0
   29.9036    3.0153   -8.1449 C   0  0  0  0  0  0  0  0  0  0  0  0
   37.3877    2.5781   -6.5367 O   0  0  0  0  0  0  0  0  0  0  0  0
   36.5245    3.4301   -7.1699 C   0  0  0  0  0  0  0  0  0  0  0  0
   31.4204    4.0005   -5.6034 C   0  0  0  0  0  0  0  0  0  0  0  0
   36.4105    5.1029   -5.3933 C   0  0  0  0  0  0  0  0  0  0  0  0
   31.0078    3.1685   -4.4062 C   0  0  0  0  0  0  0  0  0  0  0  0
   35.6288    4.1419   -6.2422 C   0  0  0  0  0  0  0  0  0  0  0  0
   31.3175    5.8940   -7.0400 O   0  0  0  0  0  0  0  0  0  0  0  0
   33.9360    3.9664   -4.5378 C   0  0  0  0  0  0  0  0  0  0  0  0
   37.5934    4.3867   -4.8845 C   0  0  0  0  0  0  0  0  0  0  0  0
   33.1732    4.4106   -6.8419 C   0  0  0  0  0  0  0  0  0  0  0  0
   34.3063    4.4639   -3.3703 O   0  0  0  0  0  0  0  0  0  0  0  0
   29.6956    2.5970   -9.5039 C   0  0  0  0  0  0  0  0  0  0  0  0
   29.8957    2.6087   -4.4094 O   0  0  0  0  0  0  0  0  0  0  0  0
  1 18  1  0
  1 23  1  0
  1 25  1  0
  2 12  1  0
  2 18  1  0
  2 22  1  0
  2 25  1  0
  3 21  1  0
  3 23  1  0
  4  5  1  0
  4 27  1  0
  6  7  2  0
  6 10  1  0
  7  9  1  0
  8 27  2  0
  9 24  2  0
 10 14  2  0
 11 21  1  0
 11 25  1  0
 12 15  1  0
 13 20  2  0
 14 16  1  0
 14 24  1  0
 15 27  1  0
 16 17  1  0
 17 21  1  0
 18 20  1  0
 19 21  1  0
 19 24  1  0
 20 28  1  0
 23 26  2  0
M  END
>  <ID>  (1) 
conformer_0

$$$$
