
     RDKit          3D

 28 29  0  0  0  0  0  0  0  0999 V2000
   30.9307    2.0722   -5.5522 C   0  0  0  0  0  0  0  0  0  0  0  0
   35.6575    3.9525   -6.1868 N   0  0  0  0  0  0  0  0  0  0  0  0
   37.5434    2.5619   -5.7926 N   0  0  0  0  0  0  0  0  0  0  0  0
   38.8019    4.4199   -4.2083 C   0  0  0  0  0  0  0  0  0  0  0  0
   33.4978    4.8582   -4.5239 C   0  0  0  0  0  0  0  0  0  0  0  0
   37.4987    4.7206   -4.7791 C   0  0  0  0  0  0  0  0  0  0  0  0
   32.1517    4.1278   -4.5897 C   0  0  0  0  0  0  0  0  0  0  0  0
   39.4746    5.3702   -3.4639 N   0  0  0  0  0  0  0  0  0  0  0  0
   33.2056    4.4695   -6.8677 C   0  0  0  0  0  0  0  0  0  0  0  0
   29.7287    3.7282   -9.9753 O   0  0  0  0  0  0  0  0  0  0  0  0
   33.6289    5.3148   -7.9595 O   0  0  0  0  0  0  0  0  0  0  0  0
   30.5416    2.0727   -6.9091 O   0  0  0  0  0  0  0  0  0  0  0  0
   36.9389    5.8597   -4.5705 N   0  0  0  0  0  0  0  0  0  0  0  0
   32.1666    2.7503   -5.0806 C   0  0  0  0  0  0  0  0  0  0  0  0
   31.0983    5.4268   -7.5289 O   0  0  0  0  0  0  0  0  0  0  0  0
   30.7450    0.8571   -4.9033 O   0  0  0  0  0  0  0  0  0  0  0  0
   38.7463    2.3480   -5.2365 C   0  0  0  0  0  0  0  0  0  0  0  0
   30.7129    3.1007   -7.8531 C   0  0  0  0  0  0  0  0  0  0  0  0
   36.9316    3.6921   -5.5748 C   0  0  0  0  0  0  0  0  0  0  0  0
   35.5533    3.7408   -7.4886 O   0  0  0  0  0  0  0  0  0  0  0  0
   31.6901    4.1687   -7.2097 C   0  0  0  0  0  0  0  0  0  0  0  0
   30.5710    1.7052   -9.7953 O   0  0  0  0  0  0  0  0  0  0  0  0
   31.0995    5.0110   -4.5758 O   0  0  0  0  0  0  0  0  0  0  0  0
   33.3777    6.2858   -4.7583 O   0  0  0  0  0  0  0  0  0  0  0  0
   39.3656    3.2277   -4.4492 N   0  0  0  0  0  0  0  0  0  0  0  0
   34.2742    4.3700   -5.7426 C   0  0  0  0  0  0  0  0  0  0  0  0
   34.1576    4.4671   -3.2298 C   0  0  0  0  0  0  0  0  0  0  0  0
   30.1564    2.7690   -9.2195 C   0  0  0  0  0  0  0  0  0  0  0  0
  1 12  1  0
  1 14  1  0
  1 16  2  0
  2 19  1  0
  2 20  1  0
  2 26  1  0
  3 17  1  0
  3 19  2  0
  4  6  1  0
  4  8  2  0
  4 25  1  0
  5  7  1  0
  5 24  1  0
  5 26  1  0
  5 27  1  0
  6 13  2  0
  6 19  1  0
  7 14  2  0
  7 23  1  0
  9 11  1  0
  9 21  1  0
  9 26  1  0
 10 28  2  0
 12 18  1  0
 15 21  1  0
 17 25  2  0
 18 21  1  0
 18 28  1  0
 22 28  1  0
M  END
>  <ID>  (1) 
conformer_0

$$$$
