
     RDKit          3D

 22 23  0  0  0  0  0  0  0  0999 V2000
   31.2400    2.6663   -8.6050 C   0  0  0  0  0  0  0  0  0  0  0  0
   32.1303    4.8777   -5.3556 C   0  0  0  0  0  0  0  0  0  0  0  0
   30.7577    3.1753   -9.9132 O   0  0  0  0  0  0  0  0  0  0  0  0
   38.6557    3.5551   -5.1331 N   0  0  0  0  0  0  0  0  0  0  0  0
   30.9053    2.5843   -4.8963 C   0  0  0  0  0  0  0  0  0  0  0  0
   28.6694    2.1242   -4.0065 O   0  0  0  0  0  0  0  0  0  0  0  0
   36.3263    5.0256   -4.5657 C   0  0  0  0  0  0  0  0  0  0  0  0
   39.6835    4.8095   -3.5071 O   0  0  0  0  0  0  0  0  0  0  0  0
   32.1620    1.9941   -4.7843 O   0  0  0  0  0  0  0  0  0  0  0  0
   36.5712    3.3637   -6.2907 N   0  0  0  0  0  0  0  0  0  0  0  0
   33.6213    4.3721   -7.1299 O   0  0  0  0  0  0  0  0  0  0  0  0
   29.9742    2.1108   -3.8121 C   0  0  0  0  0  0  0  0  0  0  0  0
   31.0788    3.6837   -7.4782 C   0  0  0  0  0  0  0  0  0  0  0  0
   34.4856    4.5718   -6.0090 C   0  0  0  0  0  0  0  0  0  0  0  0
   32.1995    4.6140   -6.8583 C   0  0  0  0  0  0  0  0  0  0  0  0
   30.4594    2.9033   -6.2479 C   0  0  0  0  0  0  0  0  0  0  0  0
   35.8917    4.2916   -5.5959 C   0  0  0  0  0  0  0  0  0  0  0  0
   37.7872    3.1005   -5.9970 C   0  0  0  0  0  0  0  0  0  0  0  0
   38.6365    4.5322   -4.1372 C   0  0  0  0  0  0  0  0  0  0  0  0
   30.1992    4.6663   -8.0225 O   0  0  0  0  0  0  0  0  0  0  0  0
   37.4445    5.2348   -3.8572 C   0  0  0  0  0  0  0  0  0  0  0  0
   33.5706    4.8670   -4.8256 C   0  0  0  0  0  0  0  0  0  0  0  0
  1  3  1  0
  1 13  1  0
  2 15  1  0
  2 22  1  0
  4 18  1  0
  4 19  1  0
  5  9  1  0
  5 12  1  0
  5 16  1  0
  6 12  1  0
  7 17  1  0
  7 21  2  0
  8 19  2  0
 10 17  1  0
 10 18  2  0
 11 14  1  0
 11 15  1  0
 13 15  1  0
 13 16  1  0
 13 20  1  0
 14 17  1  0
 14 22  1  0
 19 21  1  0
M  END
>  <ID>  (1) 
conformer_0

$$$$
