
     RDKit          3D

 34 37  0  0  0  0  0  0  0  0999 V2000
   37.0059    4.2751   -4.8966 C   0  0  0  0  0  0  0  0  0  0  0  0
   30.5539    1.7087   -3.3499 C   0  0  0  0  0  0  0  0  0  0  0  0
   38.2069    2.7824   -6.0375 C   0  0  0  0  0  0  0  0  0  0  0  0
   30.8442    5.4659   -7.1989 O   0  0  0  0  0  0  0  0  0  0  0  0
   29.6186    3.4763   -8.7288 C   0  0  0  0  0  0  0  0  0  0  0  0
   37.4171    5.5305   -2.9352 O   0  0  0  0  0  0  0  0  0  0  0  0
   36.4740    4.9654   -3.8915 C   0  0  0  0  0  0  0  0  0  0  0  0
   31.6745    4.4462   -7.1128 C   0  0  0  0  0  0  0  0  0  0  0  0
   29.2067    0.8980   -3.7487 C   0  0  0  0  0  0  0  0  0  0  0  0
   38.8094    5.5161   -3.4061 C   0  0  0  0  0  0  0  0  0  0  0  0
   31.3556    2.4331   -4.3902 C   0  0  0  0  0  0  0  0  0  0  0  0
   27.7169    1.7255   -9.5763 O   0  0  0  0  0  1  0  0  0  0  0  0
   34.2747    4.5299   -4.9061 C   0  0  0  0  0  0  0  0  0  0  0  0
   30.6186    3.0786   -5.4139 O   0  0  0  0  0  0  0  0  0  0  0  0
   31.1100    3.0924   -8.4307 C   0  0  0  0  0  0  0  0  0  0  0  0
   32.9558    4.6355   -7.6172 N   0  0  0  0  0  0  0  0  0  0  0  0
   32.9510    4.2397   -4.8099 O   0  0  0  0  0  0  0  0  0  0  0  0
   28.2009    1.0923   -2.7758 O   0  0  0  0  0  0  0  0  0  0  0  0
   29.5420   -0.4965   -3.8325 O   0  0  0  0  0  0  0  0  0  0  0  0
   29.0199    2.4914   -9.9960 P   0  0  0  0  0  4  0  0  0  0  0  0
   38.2744    3.7356   -4.9641 C   0  0  0  0  0  0  0  0  0  0  0  0
   39.3360    4.2683   -4.0550 C   0  0  0  0  0  0  0  0  0  0  0  0
   34.9278    4.3011   -6.1238 C   0  0  0  0  0  0  0  0  0  0  0  0
   28.7171    3.4939  -11.1353 O   0  0  0  0  0  0  0  0  0  0  0  0
   34.2057    4.5350   -7.3081 C   0  0  0  0  0  0  0  0  0  0  0  0
   31.0661    3.1285   -6.8031 C   0  0  0  0  0  0  0  0  0  0  0  0
   35.0454    5.0217   -3.8223 C   0  0  0  0  0  0  0  0  0  0  0  0
   36.2271    3.8726   -6.0001 C   0  0  0  0  0  0  0  0  0  0  0  0
   30.0632    1.5107  -10.4492 O   0  0  0  0  0  0  0  0  0  0  0  0
   36.9893    2.9183   -6.7554 O   0  0  0  0  0  0  0  0  0  0  0  0
   39.0566    6.5881   -4.3959 F   0  0  0  0  0  0  0  0  0  0  0  0
   32.5235    3.2489   -3.9395 C   0  0  0  0  0  0  0  0  0  0  0  0
   28.5787    1.2554   -5.1556 C   0  0  0  0  0  0  0  0  0  0  0  0
   39.0592    1.8217   -6.1971 O   0  0  0  0  0  0  0  0  0  0  0  0
  1  7  1  0
  1 21  1  0
  1 28  2  0
  2  9  1  0
  2 11  1  0
  3 21  1  0
  3 30  1  0
  3 34  2  0
  4  8  2  0
  5 15  1  0
  5 20  1  0
  6  7  1  0
  6 10  1  0
  7 27  2  0
  8 16  1  0
  8 26  1  0
  9 18  1  0
  9 19  1  0
  9 33  1  0
 10 22  1  0
 10 31  1  0
 11 14  1  0
 11 32  1  0
 12 20  2  0
 13 17  1  0
 13 23  1  0
 13 27  1  0
 14 26  1  0
 15 26  1  0
 16 25  2  0
 17 32  1  0
 20 24  1  0
 20 29  1  0
 21 22  1  0
 23 25  1  0
 23 28  1  0
 28 30  1  0
M  END
>  <ID>  (1) 
conformer_0

$$$$
