
     RDKit          3D

 22 23  0  0  0  0  0  0  0  0999 V2000
   36.1825    3.7207   -6.3998 C   0  0  0  0  0  0  0  0  0  0  0  0
   35.2475    4.4475   -5.6839 N   0  0  0  0  0  0  0  0  0  0  0  0
   30.9260    3.7687   -6.0173 C   0  0  0  0  0  0  0  0  0  0  0  0
   30.1940    3.7432   -9.5777 O   0  0  0  0  0  0  0  0  0  0  0  0
   32.9162    4.3052   -7.2545 C   0  0  0  0  0  0  0  0  0  0  0  0
   31.3968    4.1201   -7.4434 C   0  0  0  0  0  0  0  0  0  0  0  0
   38.3066    3.6374   -4.9741 C   0  0  0  0  0  0  0  0  0  0  0  0
   31.1737    2.6114   -3.8547 C   0  0  0  0  0  0  0  0  0  0  0  0
   33.0221    3.9265   -4.8556 O   0  0  0  0  0  0  0  0  0  0  0  0
   38.1285    4.7704   -4.1157 C   0  0  0  0  0  0  0  0  0  0  0  0
   36.8877    5.3143   -4.0263 C   0  0  0  0  0  0  0  0  0  0  0  0
   37.3721    3.3274   -5.9350 N   0  0  0  0  0  0  0  0  0  0  0  0
   35.8960    3.4271   -7.5665 O   0  0  0  0  0  0  0  0  0  0  0  0
   35.7003    5.1268   -4.6110 C   0  0  0  0  0  0  0  0  0  0  0  0
   33.7622    4.5061   -5.9946 C   0  0  0  0  0  0  0  0  0  0  0  0
   39.3013    5.4624   -3.5030 C   0  0  0  0  0  0  0  0  0  0  0  0
   29.7237    2.5787   -4.1200 O   0  0  0  0  0  0  0  0  0  0  0  0
   32.3304    1.8712   -5.9544 O   0  0  0  0  0  0  0  0  0  0  0  0
   31.9769    2.9793   -5.1529 C   0  0  0  0  0  0  0  0  0  0  0  0
   39.3061    2.9657   -4.8860 O   0  0  0  0  0  0  0  0  0  0  0  0
   30.8516    5.3576   -7.6934 O   0  0  0  0  0  0  0  0  0  0  0  0
   30.8540    3.1521   -8.4729 C   0  0  0  0  0  0  0  0  0  0  0  0
  1  2  1  0
  1 12  1  0
  1 13  2  0
  2 14  1  0
  2 15  1  0
  3  6  1  0
  3 19  1  0
  4 22  1  0
  5  6  1  0
  5 15  1  0
  6 21  1  0
  6 22  1  0
  7 10  1  0
  7 12  1  0
  7 20  2  0
  8 17  1  0
  8 19  1  0
  9 15  1  0
  9 19  1  0
 10 11  1  0
 10 16  1  0
 11 14  2  0
 18 19  1  0
M  END
>  <ID>  (1) 
conformer_0

$$$$
