
     RDKit          3D

 27 29  0  0  0  0  0  0  0  0999 V2000
   34.5967    2.8422   -4.7237 O   0  0  0  0  0  0  0  0  0  0  0  0
   39.1057    4.3841   -3.4751 C   0  0  0  0  0  0  0  0  0  0  0  0
   33.2508    4.9496   -6.6098 C   0  0  0  0  0  0  0  0  0  0  0  0
   31.5536    4.9491   -4.8185 C   0  0  0  0  0  0  0  0  0  0  0  0
   38.4242    5.6425   -4.0687 C   0  0  0  0  0  0  0  0  0  0  0  0
   30.6564    3.4421   -8.3418 C   0  0  0  0  0  0  0  0  0  0  0  0
   30.9587    3.5685   -6.8848 C   0  0  0  0  0  0  0  0  0  0  0  0
   39.3057    6.7394   -3.5873 C   0  0  0  0  0  0  0  0  0  0  0  0
   36.4683    4.4852   -7.4502 C   0  0  0  0  0  0  0  0  0  0  0  0
   30.1635    4.4460   -8.8916 O   0  0  0  0  0  0  0  0  0  0  0  0
   31.9912    2.5093   -4.7397 C   0  0  0  0  0  0  0  0  0  0  0  0
   34.3664    5.2341   -5.5133 C   0  0  0  0  0  0  0  0  0  0  0  0
   36.8804    4.5403   -5.9546 C   0  0  0  0  0  0  0  0  0  0  0  0
   37.5808    2.2143   -6.0707 O   0  0  0  0  0  0  0  0  0  0  0  0
   36.9433    5.6977   -3.8287 C   0  0  0  0  0  0  0  0  0  0  0  0
   33.5800    5.1327   -7.9330 O   0  0  0  0  0  0  0  0  0  0  0  0
   39.6501    2.2211   -4.3725 O   0  0  0  0  0  0  0  0  0  0  0  0
   30.7594    2.3102   -8.8839 O   0  0  0  0  0  0  0  0  0  0  0  0
   31.6946    4.8483   -6.4152 C   0  0  0  0  0  0  0  0  0  0  0  0
   39.0474    3.3918   -4.6174 C   0  0  0  0  0  0  0  0  0  0  0  0
   37.9015    3.4971   -5.5561 C   0  0  0  0  0  0  0  0  0  0  0  0
   35.9417    5.4052   -5.0629 C   0  0  0  0  0  0  0  0  0  0  0  0
   34.4289    4.5721   -3.0188 C   0  0  0  0  0  0  0  0  0  0  0  0
   31.7851    2.3861   -6.2901 C   0  0  0  0  0  0  0  0  0  0  0  0
   32.4406    3.8376   -4.2012 C   0  0  0  0  0  0  0  0  0  0  0  0
   33.9479    4.0556   -4.3794 C   0  0  0  0  0  0  0  0  0  0  0  0
   30.6743    2.0763   -4.1145 C   0  0  0  0  0  0  0  0  0  0  0  0
  1 26  1  0
  2  5  1  0
  2 20  1  0
  3 12  1  0
  3 16  1  0
  3 19  1  0
  4 19  1  0
  4 25  1  0
  5  8  1  0
  5 15  1  0
  6  7  1  0
  6 10  2  0
  6 18  1  0
  7 19  1  0
  7 24  1  0
  9 13  1  0
 11 24  1  0
 11 25  1  0
 11 27  1  0
 12 22  1  0
 12 26  1  0
 13 21  1  0
 13 22  1  0
 14 21  1  0
 15 22  1  0
 17 20  1  0
 20 21  1  0
 23 26  1  0
 25 26  1  0
M  END
>  <ID>  (1) 
conformer_0

$$$$
