
     RDKit          3D

 31 33  0  0  0  0  0  0  0  0999 V2000
   28.8709    1.4341   -3.4558 C   0  0  0  0  0  0  0  0  0  0  0  0
   31.0360    3.6267   -7.6874 C   0  0  0  0  0  0  0  0  0  0  0  0
   31.0266    3.1110   -6.2723 C   0  0  0  0  0  0  0  0  0  0  0  0
   30.4319   -0.3132   -3.8428 C   0  0  0  0  0  0  0  0  0  0  0  0
   30.0780    2.1978   -4.0154 C   0  0  0  0  0  0  0  0  0  0  0  0
   33.7060    4.4761   -6.3968 C   0  0  0  0  0  0  0  0  0  0  0  0
   36.2930    5.0404   -7.6061 C   0  0  0  0  0  0  0  0  0  0  0  0
   30.7678    4.9990   -7.8104 O   0  0  0  0  0  0  0  0  0  0  0  0
   39.5071    3.2940   -4.1844 O   0  0  0  0  0  0  0  0  0  0  0  0
   32.4839    5.1469   -4.3303 C   0  0  0  0  0  0  0  0  0  0  0  0
   33.7763    3.6597   -7.3709 O   0  0  0  0  0  0  0  0  0  0  0  0
   31.0537    1.0001   -4.3864 C   0  0  0  0  0  0  0  0  0  0  0  0
   34.8909    4.4650   -4.1980 C   0  0  0  0  0  0  0  0  0  0  0  0
   37.5830    2.8217   -5.6454 C   0  0  0  0  0  0  0  0  0  0  0  0
   32.5693    5.3032   -5.8295 C   0  0  0  0  0  0  0  0  0  0  0  0
   30.7409    3.4682   -4.7761 C   0  0  0  0  0  0  0  0  0  0  0  0
   37.2982    4.2529   -5.4139 C   0  0  0  0  0  0  0  0  0  0  0  0
   38.6700    5.5337   -4.0169 O   0  0  0  0  0  0  0  0  0  0  0  0
   29.5141    1.9589   -8.5812 O   0  0  0  0  0  0  0  0  0  0  0  0
   31.9284    3.8126   -3.9640 O   0  0  0  0  0  0  0  0  0  0  0  0
   36.1715    4.7966   -6.1818 C   0  0  0  0  0  0  0  0  0  0  0  0
   27.7516    1.6960   -3.8573 O   0  0  0  0  0  0  0  0  0  0  0  0
   38.9027    4.3160   -3.5712 C   0  0  0  0  0  0  0  0  0  0  0  0
   37.5361    4.6889   -4.0461 C   0  0  0  0  0  0  0  0  0  0  0  0
   30.0779    3.7539   -9.9009 N   0  0  0  0  0  0  0  0  0  0  0  0
   30.2753    2.8991   -8.7798 C   0  0  0  0  0  0  0  0  0  0  0  0
   38.9193    2.4726   -5.1363 C   0  0  0  0  0  0  0  0  0  0  0  0
   29.1167    3.4081  -10.8330 O   0  0  0  0  0  0  0  0  0  0  0  0
   33.7868    5.2479   -3.5757 C   0  0  0  0  0  0  0  0  0  0  0  0
   34.9016    4.7140   -5.6142 N   0  0  0  0  0  0  0  0  0  0  0  0
   29.2082    0.0222   -3.1098 C   0  0  0  0  0  0  0  0  0  0  0  0
  1  5  1  0
  1 22  2  0
  1 31  1  0
  2  3  1  0
  2  8  1  0
  2 26  1  0
  3 16  1  0
  4 12  1  0
  4 31  1  0
  5 12  1  0
  5 16  1  0
  6 11  2  0
  6 15  1  0
  6 30  1  0
  7 21  1  0
  9 23  1  0
  9 27  1  0
 10 15  1  0
 10 20  1  0
 10 29  1  0
 13 29  1  0
 13 30  1  0
 14 17  1  0
 14 27  1  0
 16 20  1  0
 17 21  1  0
 17 24  1  0
 18 23  1  0
 19 26  2  0
 21 30  1  0
 23 24  1  0
 25 26  1  0
 25 28  1  0
M  END
>  <ID>  (1) 
conformer_0

$$$$
