
     RDKit          3D

 31 33  0  0  0  0  0  0  0  0999 V2000
   34.0145    5.1825   -6.4815 C   0  0  0  0  0  0  0  0  0  0  0  0
   29.4365    2.1312   -7.1222 N   0  0  0  0  0  0  0  0  0  0  0  0
   28.3019    1.7072   -9.8440 O   0  0  0  0  0  0  0  0  0  0  0  0
   34.3137    4.7361   -4.2725 C   0  0  0  0  0  0  0  0  0  0  0  0
   32.8401    4.4134   -4.5934 C   0  0  0  0  0  0  0  0  0  0  0  0
   37.9719    5.4368   -4.0482 C   0  0  0  0  0  0  0  0  0  0  0  0
   34.8332    4.3326   -3.1527 O   0  0  0  0  0  0  0  0  0  0  0  0
   35.0498    5.4404   -5.3728 O   0  0  0  0  0  0  0  0  0  0  0  0
   28.9428    2.7480  -10.0019 C   0  0  0  0  0  0  0  0  0  0  0  0
   31.4252    5.1070   -6.4787 O   0  0  0  0  0  0  0  0  0  0  0  0
   36.1206    3.8559   -6.7204 C   0  0  0  0  0  0  0  0  0  0  0  0
   29.8132    1.6340   -5.3977 S   0  0  0  0  0  4  0  0  0  0  0  0
   39.3512    2.9966   -4.4194 C   0  0  0  0  0  0  0  0  0  0  0  0
   32.4490    4.0182   -8.2546 O   0  0  0  0  0  0  0  0  0  0  0  0
   30.3942    0.3118   -4.8559 O   0  0  0  0  0  0  0  0  0  0  0  0
   31.2872    3.8012   -4.4617 C   0  0  0  0  0  0  0  0  0  0  0  0
   31.4510    3.9470   -7.3347 C   0  0  0  0  0  0  0  0  0  0  0  0
   30.1064    3.1646   -9.2838 C   0  0  0  0  0  0  0  0  0  0  0  0
   37.8560    2.5665   -6.2573 C   0  0  0  0  0  0  0  0  0  0  0  0
   32.6953    5.2741   -5.8278 C   0  0  0  0  0  0  0  0  0  0  0  0
   38.2637    3.3672   -5.1934 C   0  0  0  0  0  0  0  0  0  0  0  0
   32.3943    3.5713   -3.5283 O   0  0  0  0  0  0  0  0  0  0  0  0
   39.1339    5.1168   -3.3189 C   0  0  0  0  0  0  0  0  0  0  0  0
   36.2658    4.6308   -5.6607 N   0  0  0  0  0  0  0  0  0  0  0  0
   39.8246    3.9250   -3.5204 C   0  0  0  0  0  0  0  0  0  0  0  0
   28.7937    3.4429  -11.1579 O   0  0  0  0  0  0  0  0  0  0  0  0
   30.2755    3.1336   -7.7723 C   0  0  0  0  0  0  0  0  0  0  0  0
   37.4391    4.5090   -4.9673 C   0  0  0  0  0  0  0  0  0  0  0  0
   31.0159    2.6126   -5.1830 O   0  0  0  0  0  0  0  0  0  0  0  0
   28.5135    1.7875   -4.7220 O   0  0  0  0  0  0  0  0  0  0  0  0
   36.8600    2.8553   -7.0466 N   0  0  0  0  0  0  0  0  0  0  0  0
  1 20  1  0
  2 12  1  0
  2 27  2  0
  3  9  2  0
  4  5  1  0
  4  7  2  0
  4  8  1  0
  5 20  1  0
  5 22  1  0
  6 23  1  0
  6 28  2  0
  8 24  1  0
  9 18  1  0
  9 26  1  0
 10 17  1  0
 10 20  1  0
 11 24  1  0
 11 31  2  0
 12 15  1  0
 12 29  1  0
 12 30  1  0
 13 21  1  0
 13 25  2  0
 14 17  2  0
 16 22  1  0
 16 29  1  0
 17 27  1  0
 18 27  1  0
 19 21  2  0
 19 31  1  0
 21 28  1  0
 23 25  1  0
 24 28  1  0
M  END
>  <ID>  (1) 
conformer_0

$$$$
