
     RDKit          3D

 36 40  0  0  0  0  0  0  0  0999 V2000
   31.0779    5.5277   -7.3400 O   0  0  0  0  0  0  0  0  0  0  0  0
   34.7605    4.8710   -4.5438 C   0  0  0  0  0  0  0  0  0  0  0  0
   37.5360    2.7394   -6.0047 C   0  0  0  0  0  0  0  0  0  0  0  0
   38.5968    2.1736   -5.2875 C   0  0  0  0  0  0  0  0  0  0  0  0
   30.6037    2.4947   -6.0217 C   0  0  0  0  0  0  0  0  0  0  0  0
   31.9975    3.9263   -4.5873 C   0  0  0  0  0  0  0  0  0  0  0  0
   34.0882    4.3870   -3.2862 C   0  0  0  0  0  0  0  0  0  0  0  0
   37.6711    4.7438   -4.7524 C   0  0  0  0  0  0  0  0  0  0  0  0
   27.7587    1.4098   -3.7930 O   0  0  0  0  0  0  0  0  0  0  0  0
   31.0259    2.7940   -4.5216 C   0  0  0  0  0  0  0  0  0  0  0  0
   37.5529    6.0669   -4.5335 C   0  0  0  0  0  0  0  0  0  0  0  0
   35.6818    5.2316   -7.6473 C   0  0  0  0  0  0  0  0  0  0  0  0
   29.6991    2.7211   -3.7265 C   0  0  0  0  0  0  0  0  0  0  0  0
   29.4260    2.6379   -8.0878 C   0  0  0  0  0  0  0  0  0  0  0  0
   29.6242    0.3564   -4.2898 O   0  0  0  0  0  0  0  0  0  0  0  0
   35.3808    3.7948   -5.2576 C   0  0  0  0  0  0  0  0  0  0  0  0
   36.8427    3.8371   -5.3982 C   0  0  0  0  0  0  0  0  0  0  0  0
   28.4798    2.6607  -10.3528 C   0  0  0  0  0  0  0  0  0  0  0  0
   39.3086    2.9939   -4.3221 C   0  0  0  0  0  0  0  0  0  0  0  0
   38.6541    6.4520   -3.7402 C   0  0  0  0  0  0  0  0  0  0  0  0
   40.2523    2.5204   -3.5890 O   0  0  0  0  0  0  0  0  0  0  0  0
   30.8997    3.1348   -7.4235 C   0  0  0  0  0  0  0  0  0  0  0  0
   27.4889    1.6800  -10.2531 C   0  0  0  0  0  0  0  0  0  0  0  0
   28.9758    1.3747   -3.9929 C   0  0  0  0  0  0  0  0  0  0  0  0
   31.7407    2.2522   -8.2792 O   0  0  0  0  0  0  0  0  0  0  0  0
   31.9466    4.4203   -7.1757 C   0  0  0  0  0  0  0  0  0  0  0  0
   34.3615    5.1817   -7.0958 C   0  0  0  0  0  0  0  0  0  0  0  0
   32.6291    4.2469   -5.8495 C   0  0  0  0  0  0  0  0  0  0  0  0
   39.4491    5.3516   -3.5091 C   0  0  0  0  0  0  0  0  0  0  0  0
   37.2772    2.4965   -7.2456 O   0  0  0  0  0  0  0  0  0  0  0  0
   32.5848    4.2954   -3.3084 C   0  0  0  0  0  0  0  0  0  0  0  0
   38.8805    4.3131   -4.1658 C   0  0  0  0  0  0  0  0  0  0  0  0
   29.4431    2.9884   -9.4588 N   0  0  0  0  0  0  0  0  0  0  0  0
   33.2411    4.8459   -8.0162 C   0  0  0  0  0  0  0  0  0  0  0  0
   34.0126    4.7976   -5.7212 C   0  0  0  0  0  0  0  0  0  0  0  0
   28.4272    3.5353  -11.3684 N   0  0  0  0  0  0  0  0  0  0  0  0
  1 26  1  0
  2  7  1  0
  2 16  1  0
  2 35  1  0
  3  4  1  0
  3 17  1  0
  3 30  1  0
  4 19  1  0
  5 10  1  0
  5 22  1  0
  6 10  1  0
  6 28  1  0
  6 31  1  0
  7 31  1  0
  8 11  1  0
  8 17  1  0
  8 32  1  0
  9 24  2  0
 10 13  1  0
 11 20  1  0
 12 27  1  0
 13 24  1  0
 14 22  1  0
 14 33  1  0
 15 24  1  0
 16 17  2  3
 18 23  1  0
 18 33  1  0
 18 36  2  0
 19 21  1  0
 19 32  2  0
 20 29  1  0
 22 25  1  0
 22 26  1  0
 26 28  1  0
 26 34  1  0
 27 34  1  0
 27 35  1  0
 28 35  2  0
 29 32  1  0
M  END
>  <ID>  (1) 
conformer_0

$$$$
