
     RDKit          3D

 37 40  0  0  0  0  0  0  0  0999 V2000
   29.6702    3.2264   -9.6989 N   0  0  0  0  0  0  0  0  0  0  0  0
   36.0171    4.3627   -5.6709 C   0  0  0  0  0  0  0  0  0  0  0  0
   31.9879    3.0860   -3.8735 C   0  0  0  0  0  0  0  0  0  0  0  0
   29.8814    1.0153   -4.4960 C   0  0  0  0  0  0  0  0  0  0  0  0
   36.4580    4.6726   -4.4583 N   0  0  0  0  0  0  0  0  0  0  0  0
   30.8720    5.7557   -7.3187 O   0  0  0  0  0  0  0  0  0  0  0  0
   31.0249    2.5812   -6.0725 C   0  0  0  0  0  0  0  0  0  0  0  0
   34.7988    4.5409   -7.5198 C   0  0  0  0  0  0  0  0  0  0  0  0
   39.0116    1.2924   -5.6788 C   0  0  0  0  0  0  0  0  0  0  0  0
   30.1688    1.6026   -5.6627 C   0  0  0  0  0  0  0  0  0  0  0  0
   31.8025    3.3825   -5.2018 C   0  0  0  0  0  0  0  0  0  0  0  0
   31.3960    2.2422   -3.0405 C   0  0  0  0  0  0  0  0  0  0  0  0
   30.4346    1.2989   -3.2706 C   0  0  0  0  0  0  0  0  0  0  0  0
   37.5706    6.6775   -3.5735 N   0  0  0  0  0  0  0  0  0  0  0  0
   30.2831    3.3380   -8.4392 C   0  0  0  0  0  0  0  0  0  0  0  0
   33.7107    4.8045   -5.2473 C   0  0  0  0  0  0  0  0  0  0  0  0
   40.4423    1.3822   -3.7525 C   0  0  0  0  0  0  0  0  0  0  0  0
   40.0122    2.6081   -3.4646 C   0  0  0  0  0  0  0  0  0  0  0  0
   27.6489    2.8397  -10.9785 C   0  0  0  0  0  0  0  0  0  0  0  0
   34.7932    4.7079   -6.1870 C   0  0  0  0  0  0  0  0  0  0  0  0
   39.9264    0.7313   -4.8747 C   0  0  0  0  0  0  0  0  0  0  0  0
   28.0647    1.8048   -8.7417 O   0  0  0  0  0  0  0  0  0  0  0  0
   28.5472    2.3065   -9.8711 C   0  0  0  0  0  0  0  0  0  0  0  0
   31.8052    5.3751   -6.7133 C   0  0  0  0  0  0  0  0  0  0  0  0
   38.9432    6.7854   -3.4874 C   0  0  0  0  0  0  0  0  0  0  0  0
   38.5619    2.6065   -5.4461 C   0  0  0  0  0  0  0  0  0  0  0  0
   37.7396    3.0093   -6.4346 N   0  0  0  0  0  0  0  0  0  0  0  0
   36.8718    5.6373   -3.8033 C   0  0  0  0  0  0  0  0  0  0  0  0
   36.7322    3.6970   -6.6864 C   0  0  0  0  0  0  0  0  0  0  0  0
   36.0675    3.9398   -7.8054 N   0  0  0  0  0  0  0  0  0  0  0  0
   31.1262    2.8320   -7.4852 N   0  0  0  0  0  0  0  0  0  0  0  0
   28.4362    3.5071  -11.9871 O   0  0  0  0  0  0  0  0  0  0  0  0
   32.3886    4.5549   -5.7681 C   0  0  0  0  0  0  0  0  0  0  0  0
   39.6430    5.6677   -3.5842 C   0  0  0  0  0  0  0  0  0  0  0  0
   39.1650    4.5520   -3.9407 C   0  0  0  0  0  0  0  0  0  0  0  0
   33.8576    5.0683   -3.9715 O   0  0  0  0  0  0  0  0  0  0  0  0
   39.1244    3.2899   -4.3311 C   0  0  0  0  0  0  0  0  0  0  0  0
  1 15  1  0
  1 23  1  0
  2  5  1  0
  2 20  1  0
  2 29  1  0
  3 11  1  0
  3 12  2  0
  4 10  2  0
  4 13  1  0
  5 28  1  0
  6 24  2  0
  7 10  1  0
  7 11  2  0
  7 31  1  0
  8 20  1  0
  8 30  1  0
  9 21  2  0
  9 26  1  0
 11 33  1  0
 12 13  1  0
 14 25  2  0
 14 28  1  0
 15 31  1  0
 16 20  1  0
 16 33  1  0
 16 36  1  0
 17 18  2  0
 17 21  1  0
 18 37  1  0
 19 23  1  0
 19 32  1  0
 22 23  2  0
 24 33  1  0
 25 34  1  0
 26 27  1  0
 26 37  1  0
 27 29  2  0
 29 30  1  0
 34 35  2  0
 35 37  2  0
M  END
>  <ID>  (1) 
conformer_0

$$$$
