
     RDKit          3D

 30 32  0  0  0  0  0  0  0  0999 V2000
   39.1722    6.1198   -3.3097 C   0  0  0  0  0  0  0  0  0  0  0  0
   30.2189    1.9118   -5.2908 C   0  0  0  0  0  0  0  0  0  0  0  0
   32.3187    3.8378   -3.9689 C   0  0  0  0  0  0  0  0  0  0  0  0
   37.9006    2.5749   -5.9528 N   0  0  0  0  0  0  0  0  0  0  0  0
   32.6977    4.1935   -8.4379 O   0  0  0  0  0  0  0  0  0  0  0  0
   33.3955    4.7967   -3.7600 O   0  0  0  0  0  0  0  0  0  0  0  0
   38.8055    2.8702   -4.9534 C   0  0  0  0  0  0  0  0  0  0  0  0
   38.7342    4.1685   -4.3476 N   0  0  0  0  0  0  0  0  0  0  0  0
   29.6895    1.5533  -10.0532 O   0  0  0  0  0  0  0  0  0  0  0  0
   30.8414    5.5493   -5.5964 O   0  0  0  0  0  0  0  0  0  0  0  0
   29.5363    2.7534   -9.8737 C   0  0  0  0  0  0  0  0  0  0  0  0
   36.5841    4.5662   -5.4855 C   0  0  0  0  0  0  0  0  0  0  0  0
   34.0376    5.0711   -5.0562 O   0  0  0  0  0  0  0  0  0  0  0  0
   35.1358    4.4762   -7.1167 C   0  0  0  0  0  0  0  0  0  0  0  0
   28.9765    1.7076   -5.3694 O   0  0  0  0  0  0  0  0  0  0  0  0
   36.9421    3.4823   -6.3187 C   0  0  0  0  0  0  0  0  0  0  0  0
   32.6807    4.3112   -7.2078 C   0  0  0  0  0  0  0  0  0  0  0  0
   30.0729    3.5190   -8.6898 C   0  0  0  0  0  0  0  0  0  0  0  0
   30.8324    3.1961   -5.9582 C   0  0  0  0  0  0  0  0  0  0  0  0
   36.1234    3.5864   -7.4158 C   0  0  0  0  0  0  0  0  0  0  0  0
   30.9998    0.9769   -4.9948 O   0  0  0  0  0  0  0  0  0  0  0  0
   32.8671    4.9554   -5.9135 C   0  0  0  0  0  0  0  0  0  0  0  0
   39.6015    2.0414   -4.5641 O   0  0  0  0  0  0  0  0  0  0  0  0
   35.2957    4.9043   -5.8529 N   0  0  0  0  0  0  0  0  0  0  0  0
   29.0750    3.5258  -10.8193 O   0  0  0  0  0  0  0  0  0  0  0  0
   30.7174    2.8052   -7.5037 C   0  0  0  0  0  0  0  0  0  0  0  0
   39.6800    4.8528   -3.4937 C   0  0  0  0  0  0  0  0  0  0  0  0
   37.8853    6.2619   -4.0410 C   0  0  0  0  0  0  0  0  0  0  0  0
   37.6043    5.0407   -4.6535 C   0  0  0  0  0  0  0  0  0  0  0  0
   31.5434    4.3527   -5.1553 C   0  0  0  0  0  0  0  0  0  0  0  0
  1 27  1  0
  1 28  1  0
  2 15  2  0
  2 19  1  0
  2 21  1  0
  3  6  1  0
  3 30  1  0
  4  7  1  0
  4 16  1  0
  5 17  1  0
  7  8  1  0
  7 23  2  0
  8 27  1  0
  8 29  1  0
  9 11  2  0
 10 30  1  0
 11 18  1  0
 11 25  1  0
 12 16  1  0
 12 24  1  0
 12 29  1  0
 13 22  1  0
 13 24  1  0
 14 20  1  0
 14 24  1  0
 16 20  1  0
 17 22  1  0
 18 26  1  0
 19 26  1  0
 19 30  1  0
 22 30  1  0
 28 29  1  0
M  END
>  <ID>  (1) 
conformer_0

$$$$
