
     RDKit          3D

 35 37  0  0  0  0  0  0  0  0999 V2000
   34.4933    4.7048   -5.5676 C   0  0  0  0  0  0  0  0  0  0  0  0
   29.8008    2.9888   -9.1365 P   0  0  0  0  0  4  0  0  0  0  0  0
   39.1308    7.0715   -2.9158 F   0  0  0  0  0  0  0  0  0  0  0  0
   37.8061    3.1697   -5.6209 C   0  0  0  0  0  0  0  0  0  0  0  0
   31.1533    4.3203   -5.8973 C   0  0  0  0  0  0  0  0  0  0  0  0
   29.7935    1.4349   -3.6319 C   0  0  0  0  0  0  0  0  0  0  0  0
   34.1027    4.6680   -6.9295 C   0  0  0  0  0  0  0  0  0  0  0  0
   39.4726    3.3760   -3.9187 C   0  0  0  0  0  0  0  0  0  0  0  0
   39.0656    1.2491   -6.4489 O   0  0  0  0  0  0  0  0  0  0  0  0
   29.9017    1.6760   -5.0097 C   0  0  0  0  0  0  0  0  0  0  0  0
   37.7400    4.9542   -4.0094 C   0  0  0  0  0  0  0  0  0  0  0  0
   29.2117    3.4827  -10.5339 O   0  0  0  0  0  1  0  0  0  0  0  0
   28.4092    2.3898   -8.2632 C   0  0  0  0  0  0  0  0  0  0  0  0
   31.6294    3.9694   -7.3471 C   0  0  0  0  0  0  0  0  0  0  0  0
   38.7247    6.1569   -4.0133 C   0  0  0  0  0  0  0  0  0  0  0  0
   38.2243    3.7499   -4.3787 N   0  0  0  0  0  0  0  0  0  0  0  0
   35.7938    4.4598   -5.2334 C   0  0  0  0  0  0  0  0  0  0  0  0
   30.7891    1.9120   -9.3958 O   0  0  0  0  0  0  0  0  0  0  0  0
   30.1358    2.7803   -4.1387 C   0  0  0  0  0  0  0  0  0  0  0  0
   36.3808    4.0755   -7.4425 C   0  0  0  0  0  0  0  0  0  0  0  0
   36.6588    3.9147   -6.0839 C   0  0  0  0  0  0  0  0  0  0  0  0
   28.6963    1.2961   -3.0094 O   0  0  0  0  0  0  0  0  0  0  0  0
   31.6462    2.9472   -3.9763 C   0  0  0  0  0  0  0  0  0  0  0  0
   35.0989    4.4824   -7.8424 C   0  0  0  0  0  0  0  0  0  0  0  0
   30.4657    4.1729   -8.2900 O   0  0  0  0  0  0  0  0  0  0  0  0
   39.8014    2.2085   -3.7601 O   0  0  0  0  0  0  0  0  0  0  0  0
   39.6864    5.7037   -3.1998 O   0  0  0  0  0  0  0  0  0  0  0  0
   40.1356    4.4326   -3.2493 O   0  0  0  0  0  0  0  0  0  0  0  0
   30.8067    5.6642   -5.9001 O   0  0  0  0  0  0  0  0  0  0  0  0
   33.3933    4.7510   -4.4518 C   0  0  0  0  0  0  0  0  0  0  0  0
   36.8606    5.3418   -3.0368 F   0  0  0  0  0  0  0  0  0  0  0  0
   32.1573    4.0230   -4.8462 C   0  0  0  0  0  0  0  0  0  0  0  0
   37.9762    1.7582   -5.8342 C   0  0  0  0  0  0  0  0  0  0  0  0
   38.1576    6.9913   -4.9021 F   0  0  0  0  0  0  0  0  0  0  0  0
   32.8166    4.7769   -7.5682 N   0  0  0  0  0  0  0  0  0  0  0  0
  1  7  1  0
  1 17  1  0
  1 30  1  0
  2 12  2  0
  2 13  1  0
  2 18  1  0
  2 25  1  0
  3 15  1  0
  4 16  1  0
  4 21  1  0
  4 33  1  0
  5 14  1  0
  5 29  1  0
  5 32  1  0
  6 10  1  0
  6 22  2  0
  7 24  2  0
  7 35  1  0
  8 16  1  0
  8 26  2  0
  8 28  1  0
  9 33  1  0
 10 19  1  0
 11 15  1  0
 11 16  1  0
 11 31  1  0
 14 25  1  0
 14 35  1  0
 15 27  1  0
 15 34  1  0
 17 21  1  0
 19 23  1  0
 20 21  1  0
 20 24  1  0
 23 32  1  0
 27 28  1  0
 30 32  1  0
M  END
>  <ID>  (1) 
conformer_0

$$$$
