
     RDKit          3D

 34 38  0  0  0  0  0  0  0  0999 V2000
   36.1641    4.9147   -6.5105 C   0  0  0  0  0  0  0  0  0  0  0  0
   39.7080    2.0520   -4.4919 C   0  0  0  0  0  0  0  0  0  0  0  0
   40.0022    2.9827   -3.4941 N   0  0  0  0  0  0  0  0  0  0  0  0
   39.3566    4.1528   -3.5093 C   0  0  0  0  0  0  0  0  0  0  0  0
   30.6581    1.6190   -4.4040 C   0  0  0  0  0  0  0  0  0  0  0  0
   34.5434    5.0702   -6.6391 C   0  0  0  0  0  0  0  0  0  0  0  0
   38.7604    2.2670   -5.3803 N   0  0  0  0  0  0  0  0  0  0  0  0
   30.5331    3.1055   -9.9330 N   0  0  0  0  0  0  0  0  0  0  0  0
   30.0249    2.2622   -8.8967 C   0  0  0  0  0  0  0  0  0  0  0  0
   31.2800    2.9358   -5.1117 C   0  0  0  0  0  0  0  0  0  0  0  0
   37.5187    5.5573   -4.4041 C   0  0  0  0  0  0  0  0  0  0  0  0
   29.5789    3.9579  -10.4208 O   0  0  0  0  0  0  0  0  0  0  0  0
   32.6662    3.6845   -5.6191 C   0  0  0  0  0  0  0  0  0  0  0  0
   33.6705    5.2586   -4.1201 O   0  0  0  0  0  0  0  0  0  0  0  0
   36.4743    5.2626   -7.8098 O   0  0  0  0  0  0  0  0  0  0  0  0
   31.1098    3.9335   -7.5661 C   0  0  0  0  0  0  0  0  0  0  0  0
   33.5177    2.6291   -5.9931 O   0  0  0  0  0  0  0  0  0  0  0  0
   38.2335    4.3361   -4.3437 C   0  0  0  0  0  0  0  0  0  0  0  0
   28.4318    2.3067   -3.7780 O   0  0  0  0  0  0  0  0  0  0  0  0
   33.3479    5.0661   -7.4632 O   0  0  0  0  0  0  0  0  0  0  0  0
   34.0236    4.8085   -5.2980 C   0  0  0  0  0  0  0  0  0  0  0  0
   30.2756    4.8100   -7.9778 O   0  0  0  0  0  0  0  0  0  0  0  0
   30.7416    2.5477   -7.6445 C   0  0  0  0  0  0  0  0  0  0  0  0
   37.9838    3.3881   -5.3810 C   0  0  0  0  0  0  0  0  0  0  0  0
   32.1726    4.6316   -6.6970 C   0  0  0  0  0  0  0  0  0  0  0  0
   35.1438    5.0123   -4.3108 C   0  0  0  0  0  0  0  0  0  0  0  0
   30.0979   -0.8033   -3.0796 N   0  0  0  0  0  0  0  0  0  0  0  0
   31.4883    0.5593   -4.4490 N   0  0  0  0  0  0  0  0  0  0  0  0
   36.2771    5.6836   -5.2411 C   0  0  0  0  0  0  0  0  0  0  0  0
   31.2155   -0.5959   -3.8221 C   0  0  0  0  0  0  0  0  0  0  0  0
   29.1832    0.1774   -3.0323 C   0  0  0  0  0  0  0  0  0  0  0  0
   30.6251    4.0783   -4.5359 O   0  0  0  0  0  0  0  0  0  0  0  0
   36.8802    3.5691   -6.2925 C   0  0  0  0  0  0  0  0  0  0  0  0
   29.3798    1.3898   -3.7346 C   0  0  0  0  0  0  0  0  0  0  0  0
  1  6  1  0
  1 15  1  0
  1 29  1  0
  1 33  1  0
  2  3  2  0
  2  7  1  0
  3  4  1  0
  4 18  2  0
  5 10  1  0
  5 28  1  0
  5 34  1  0
  6 20  1  0
  6 21  1  0
  7 24  2  0
  8  9  1  0
  8 12  1  0
  9 23  1  0
 10 13  1  0
 10 32  1  0
 11 18  1  0
 11 29  1  0
 13 17  1  0
 13 21  1  0
 13 25  1  0
 14 21  1  0
 16 22  2  0
 16 23  1  0
 16 25  1  0
 18 24  1  0
 19 34  1  0
 20 25  1  0
 21 26  1  0
 24 33  1  0
 26 29  1  0
 27 30  1  0
 27 31  1  0
 28 30  2  0
 31 34  2  0
M  END
>  <ID>  (1) 
conformer_0

$$$$
