
     RDKit          3D

 24 25  0  0  0  0  0  0  0  0999 V2000
   36.0041    3.1443   -6.5374 C   0  0  0  0  0  0  0  0  0  0  0  0
   39.0197    3.5979   -4.7542 C   0  0  0  0  0  0  0  0  0  0  0  0
   30.4332    1.7995   -4.5791 C   0  0  0  0  0  0  0  0  0  0  0  0
   36.8116    4.4640   -4.9586 C   0  0  0  0  0  0  0  0  0  0  0  0
   30.3867    1.2304   -3.4632 O   0  0  0  0  0  0  0  0  0  0  0  0
   34.3764    4.3898   -5.0973 C   0  0  0  0  0  0  0  0  0  0  0  0
   30.9289    3.8738   -7.2377 C   0  0  0  0  0  0  0  0  0  0  0  0
   37.0877    5.4403   -4.1180 N   0  0  0  0  0  0  0  0  0  0  0  0
   33.3534    5.3470   -5.6463 C   0  0  0  0  0  0  0  0  0  0  0  0
   29.4357    1.7431   -5.3928 O   0  0  0  0  0  0  0  0  0  0  0  0
   34.1323    4.0163   -3.8101 O   0  0  0  0  0  0  0  0  0  0  0  0
   30.7542    5.0533   -7.7961 O   0  0  0  0  0  0  0  0  0  0  0  0
   30.1889    2.8764   -9.4285 C   0  0  0  0  0  0  0  0  0  0  0  0
   30.2701    2.8592   -8.0287 N   0  0  0  0  0  0  0  0  0  0  0  0
   38.2727    5.4558   -3.5758 C   0  0  0  0  0  0  0  0  0  0  0  0
   31.7144    2.4572   -5.0482 C   0  0  0  0  0  0  0  0  0  0  0  0
   35.6580    4.0978   -5.6146 N   0  0  0  0  0  0  0  0  0  0  0  0
   31.9469    4.9705   -5.0025 C   0  0  0  0  0  0  0  0  0  0  0  0
   37.2609    2.8483   -6.3635 N   0  0  0  0  0  0  0  0  0  0  0  0
   37.8029    3.5796   -5.3894 C   0  0  0  0  0  0  0  0  0  0  0  0
   29.2993    3.5692  -10.1324 O   0  0  0  0  0  0  0  0  0  0  0  0
   31.2957    3.8075   -5.7498 C   0  0  0  0  0  0  0  0  0  0  0  0
   32.4349    1.6977   -6.0415 O   0  0  0  0  0  0  0  0  0  0  0  0
   39.2305    4.5508   -3.8564 N   0  0  0  0  0  0  0  0  0  0  0  0
  1 17  1  0
  1 19  1  0
  2 20  2  0
  2 24  1  0
  3  5  2  0
  3 10  1  0
  3 16  1  0
  4  8  2  0
  4 17  1  0
  4 20  1  0
  6  9  1  0
  6 11  2  0
  6 17  1  0
  7 12  2  0
  7 14  1  0
  7 22  1  0
  8 15  1  0
  9 18  1  0
 13 14  1  0
 13 21  1  0
 15 24  2  0
 16 22  1  0
 16 23  1  0
 18 22  1  0
 19 20  1  0
M  END
>  <ID>  (1) 
conformer_0

$$$$
