
     RDKit          3D

 43 48  0  0  0  0  0  0  0  0999 V2000
   36.2070    4.1835   -5.1709 O   0  0  0  0  0  0  0  0  0  0  0  0
   38.7395    6.4047   -3.8337 C   0  0  0  0  0  0  0  0  0  0  0  0
   38.5229    1.2599   -7.1782 F   0  0  0  0  0  0  0  0  0  0  0  0
   32.0623    3.2478   -3.5157 C   0  0  0  0  0  0  0  0  0  0  0  0
   39.2920    2.2358   -4.5651 C   0  0  0  0  0  0  0  0  0  0  0  0
   30.0639    3.0366   -9.0305 C   0  0  0  0  0  0  0  0  0  0  0  0
   41.1318    1.5296   -3.2923 O   0  0  0  0  0  0  0  0  0  0  0  0
   27.7346    2.4716   -9.3960 O   0  0  0  0  0  0  0  0  0  0  0  0
   34.5774    4.2557   -6.6168 C   0  0  0  0  0  0  0  0  0  0  0  0
   37.4641    3.8226   -8.6023 F   0  0  0  0  0  0  0  0  0  0  0  0
   40.4233    1.0885   -4.4447 C   0  0  0  0  0  0  0  0  0  0  0  0
   40.9696    0.6597   -5.6152 C   0  0  0  0  0  0  0  0  0  0  0  0
   29.0541    0.7161   -3.7333 O   0  0  0  0  0  0  0  0  0  0  0  0
   37.0026    3.3099   -7.2633 C   0  0  0  0  0  0  0  0  0  0  0  0
   35.3915    4.2139   -3.8429 C   0  0  0  0  0  0  0  0  0  0  0  0
   36.0447    4.3574   -6.6136 C   0  0  0  0  0  0  0  0  0  0  0  0
   30.0308    4.1321   -8.2048 N   0  0  0  0  0  0  0  0  0  0  0  0
   32.2040    4.3374   -5.7886 C   0  0  0  0  0  0  0  0  0  0  0  0
   32.9721    4.3525   -3.1564 C   0  0  0  0  0  0  0  0  0  0  0  0
   31.6232    3.1117   -5.0374 C   0  0  0  0  0  0  0  0  0  0  0  0
   30.1049    1.6341   -3.5229 C   0  0  0  0  0  0  0  0  0  0  0  0
   39.6864    5.5299   -3.2248 C   0  0  0  0  0  0  0  0  0  0  0  0
   33.6868    4.2847   -5.5122 C   0  0  0  0  0  0  0  0  0  0  0  0
   28.8353    2.8111   -9.9240 C   0  0  0  0  0  0  0  0  0  0  0  0
   39.5848    4.1287   -3.4705 C   0  0  0  0  0  0  0  0  0  0  0  0
   40.3612    2.8322   -3.0527 C   0  0  0  0  0  0  0  0  0  0  0  0
   37.2477    1.4059   -5.0533 O   0  0  0  0  0  0  0  0  0  0  0  0
   38.3164    1.7450   -5.7630 C   0  0  0  0  0  0  0  0  0  0  0  0
   33.6847    4.8360   -7.6840 C   0  0  0  0  0  0  0  0  0  0  0  0
   31.5140    5.4884   -5.3178 O   0  0  0  0  0  0  0  0  0  0  0  0
   29.0414    3.1986  -11.1541 O   0  0  0  0  0  0  0  0  0  0  0  0
   38.1676    2.4700   -6.8766 C   0  0  0  0  0  0  0  0  0  0  0  0
   29.4999    1.7426   -5.7710 C   0  0  0  0  0  0  0  0  0  0  0  0
   28.4453    0.9027   -5.0603 C   0  0  0  0  0  0  0  0  0  0  0  0
   31.1420    4.9853   -7.9310 C   0  0  0  0  0  0  0  0  0  0  0  0
   37.5469    4.5472   -4.6945 C   0  0  0  0  0  0  0  0  0  0  0  0
   31.0132    2.2369   -9.0006 O   0  0  0  0  0  0  0  0  0  0  0  0
   37.6477    5.9014   -4.5059 C   0  0  0  0  0  0  0  0  0  0  0  0
   30.1760    2.5729   -4.7880 C   0  0  0  0  0  0  0  0  0  0  0  0
   38.6263    3.6711   -4.3097 C   0  0  0  0  0  0  0  0  0  0  0  0
   32.3155    4.3746   -7.3043 C   0  0  0  0  0  0  0  0  0  0  0  0
   36.3626    5.6467   -7.2378 F   0  0  0  0  0  0  0  0  0  0  0  0
   34.0569    4.3499   -4.1465 C   0  0  0  0  0  0  0  0  0  0  0  0
  1 16  1  0
  1 36  1  0
  2 22  1  0
  2 38  1  0
  3 32  1  0
  4 19  1  0
  4 20  1  0
  5 11  1  0
  5 28  1  0
  5 40  2  0
  6 17  1  0
  6 24  1  0
  6 37  2  0
  7 11  1  0
  7 26  1  0
  8 24  2  0
  9 16  1  0
  9 23  1  0
  9 29  1  0
 10 14  1  0
 11 12  1  0
 13 21  1  0
 13 34  1  0
 14 16  1  0
 14 32  1  0
 15 43  2  0
 16 42  1  0
 17 35  1  0
 18 20  1  0
 18 23  1  0
 18 30  1  0
 18 41  1  0
 19 43  1  0
 20 39  1  0
 21 39  1  0
 22 25  2  0
 23 43  1  0
 24 31  1  0
 25 26  1  0
 25 40  1  0
 27 28  1  0
 28 32  1  0
 29 41  1  0
 33 34  1  0
 33 39  1  0
 35 41  1  0
 36 38  2  0
 36 40  1  0
M  END
>  <ID>  (1) 
conformer_0

$$$$
