
     RDKit          3D

 35 38  0  0  0  0  0  0  0  0999 V2000
   36.9246    3.1832   -7.8891 O   0  0  0  0  0  0  0  0  0  0  0  0
   35.3118    4.0370   -5.4523 C   0  0  0  0  0  0  0  0  0  0  0  0
   31.7321    1.6116   -6.2658 O   0  0  0  0  0  0  0  0  0  0  0  0
   37.1769    2.2689   -5.3118 O   0  0  0  0  0  0  0  0  0  0  0  0
   31.9937    3.7614   -4.0465 C   0  0  0  0  0  0  0  0  0  0  0  0
   32.4584    4.7628   -2.9240 C   0  0  0  0  0  0  0  0  0  0  0  0
   34.0355    4.9563   -7.3101 C   0  0  0  0  0  0  0  0  0  0  0  0
   39.0439    5.6935   -3.7544 C   0  0  0  0  0  0  0  0  0  0  0  0
   28.9372    0.1160   -3.7746 O   0  0  0  0  0  0  0  0  0  0  0  0
   38.8508    3.4540   -4.3242 C   0  0  0  0  0  0  0  0  0  0  0  0
   39.7887    6.5387   -2.9489 F   0  0  0  0  0  0  0  0  0  0  0  0
   31.1637    5.5289   -7.7456 O   0  0  0  0  0  0  0  0  0  0  0  0
   39.5597    4.4410   -3.8098 C   0  0  0  0  0  0  0  0  0  0  0  0
   29.1823    3.6596   -9.6256 O   0  0  0  0  0  0  0  0  0  0  0  0
   30.0805    2.9419   -9.1577 C   0  0  0  0  0  0  0  0  0  0  0  0
   30.4490    3.9114   -4.0718 C   0  0  0  0  0  0  0  0  0  0  0  0
   29.9924    2.5558   -4.7922 C   0  0  0  0  0  0  0  0  0  0  0  0
   37.5994    3.4599   -4.8546 C   0  0  0  0  0  0  0  0  0  0  0  0
   32.8469    4.0904   -5.3014 C   0  0  0  0  0  0  0  0  0  0  0  0
   37.9172    6.2154   -4.2720 C   0  0  0  0  0  0  0  0  0  0  0  0
   36.8326    5.8124   -4.8544 N   0  0  0  0  0  0  0  0  0  0  0  0
   32.8433    4.1568   -6.8299 C   0  0  0  0  0  0  0  0  0  0  0  0
   34.1678    4.6143   -4.7403 C   0  0  0  0  0  0  0  0  0  0  0  0
   36.4774    4.3394   -7.6663 C   0  0  0  0  0  0  0  0  0  0  0  0
   36.6206    4.5031   -5.0116 C   0  0  0  0  0  0  0  0  0  0  0  0
   34.0675    4.4715   -3.1644 C   0  0  0  0  0  0  0  0  0  0  0  0
   36.8260    5.4629   -8.2419 O   0  0  0  0  0  0  0  0  0  0  0  0
   30.8127    2.2938   -9.8901 O   0  0  0  0  0  0  0  0  0  0  0  0
   30.1329    0.2907   -3.8249 C   0  0  0  0  0  0  0  0  0  0  0  0
   30.6215    1.6373   -3.7489 O   0  0  0  0  0  0  0  0  0  0  0  0
   30.6354    2.6847   -6.2492 C   0  0  0  0  0  0  0  0  0  0  0  0
   31.7124    4.2351   -7.8162 C   0  0  0  0  0  0  0  0  0  0  0  0
   31.0232   -0.5754   -3.9442 O   0  0  0  0  0  0  0  0  0  0  0  0
   30.5685    3.2240   -7.7170 C   0  0  0  0  0  0  0  0  0  0  0  0
   35.2986    4.4548   -6.8484 C   0  0  0  0  0  0  0  0  0  0  0  0
  1 24  2  0
  2 23  1  0
  2 25  1  0
  2 35  1  0
  3 31  1  0
  4 18  1  0
  5  6  1  0
  5 16  1  0
  5 19  1  0
  6 26  1  0
  7 22  1  0
  7 35  1  0
  8 11  1  0
  8 13  1  0
  8 20  1  0
  9 29  2  0
 10 13  2  0
 10 18  1  0
 12 32  1  0
 14 15  2  0
 15 28  1  0
 15 34  1  0
 16 17  1  0
 17 30  1  0
 17 31  1  0
 18 25  2  0
 19 22  1  0
 19 23  1  0
 20 21  2  0
 21 25  1  0
 22 32  1  0
 23 26  1  0
 24 27  1  0
 24 35  1  0
 29 30  1  0
 29 33  1  0
 31 34  1  0
 32 34  1  0
M  END
>  <ID>  (1) 
conformer_0

$$$$
