
     RDKit          3D

 27 29  0  0  0  0  0  0  0  0999 V2000
   31.0547    3.0583   -5.7301 C   0  0  0  0  0  0  0  0  0  0  0  0
   32.8248    4.1473   -4.2386 C   0  0  0  0  0  0  0  0  0  0  0  0
   39.6124    2.5049   -4.3861 C   0  0  0  0  0  0  0  0  0  0  0  0
   30.8382    2.8246   -7.6210 P   0  0  0  0  0  4  0  0  0  0  0  0
   30.6959    3.8407   -8.9663 O   0  0  0  0  0  1  0  0  0  0  0  0
   37.8966    5.8336   -4.1707 C   0  0  0  0  0  0  0  0  0  0  0  0
   39.4199    3.7649   -3.8889 C   0  0  0  0  0  0  0  0  0  0  0  0
   34.3240    4.5362   -4.1440 C   0  0  0  0  0  0  0  0  0  0  0  0
   36.3423    4.8971   -5.2500 N   0  0  0  0  0  0  0  0  0  0  0  0
   38.3656    4.5244   -4.3398 C   0  0  0  0  0  0  0  0  0  0  0  0
   31.7435    5.7924   -7.3503 O   0  0  0  0  0  0  0  0  0  0  0  0
   32.0246    1.9126   -7.9864 O   0  0  0  0  0  0  0  0  0  0  0  0
   36.7234    6.0277   -4.6960 N   0  0  0  0  0  0  0  0  0  0  0  0
   31.8661    4.4063   -5.3559 C   0  0  0  0  0  0  0  0  0  0  0  0
   35.1638    4.1297   -7.2134 C   0  0  0  0  0  0  0  0  0  0  0  0
   34.9267    4.7060   -5.6983 C   0  0  0  0  0  0  0  0  0  0  0  0
   30.9441    2.2787   -4.3819 C   0  0  0  0  0  0  0  0  0  0  0  0
   29.6899   -0.2416   -2.5719 O   0  0  0  0  0  0  0  0  0  0  0  0
   37.5076    2.7032   -5.5874 N   0  0  0  0  0  0  0  0  0  0  0  0
   38.5827    2.0271   -5.2582 C   0  0  0  0  0  0  0  0  0  0  0  0
   32.5405    5.1490   -6.5001 C   0  0  0  0  0  0  0  0  0  0  0  0
   29.4315    2.1697   -7.6211 O   0  0  0  0  0  0  0  0  0  0  0  0
   28.7020    1.9777   -3.6526 O   0  0  0  0  0  0  0  0  0  0  0  0
   33.8540    5.6534   -6.1177 O   0  0  0  0  0  0  0  0  0  0  0  0
   29.7464    1.4852   -4.1353 C   0  0  0  0  0  0  0  0  0  0  0  0
   37.3543    3.9460   -5.1336 C   0  0  0  0  0  0  0  0  0  0  0  0
   30.0140    0.0577   -3.8378 C   0  0  0  0  0  0  0  0  0  0  0  0
  1  4  1  0
  1 14  1  0
  1 17  1  0
  2  8  1  0
  2 14  1  0
  3  7  2  0
  3 20  1  0
  4  5  2  0
  4 12  1  0
  4 22  1  0
  6 10  1  0
  6 13  1  0
  7 10  1  0
  8 16  1  0
  9 13  1  0
  9 16  1  0
  9 26  1  0
 10 26  2  0
 11 21  2  0
 14 21  1  0
 15 16  1  0
 16 24  1  0
 17 25  1  0
 18 27  1  0
 19 20  2  0
 19 26  1  0
 21 24  1  0
 23 25  2  0
 25 27  1  0
M  END
>  <ID>  (1) 
conformer_0

$$$$
