
     RDKit          3D

 27 29  0  0  0  0  0  0  0  0999 V2000
   32.8752    4.7243   -6.6502 C   0  0  0  0  0  0  0  0  0  0  0  0
   35.0864    3.8937   -7.2094 C   0  0  0  0  0  0  0  0  0  0  0  0
   38.7453    3.5561   -4.3452 N   0  0  0  0  0  0  0  0  0  0  0  0
   36.7708    3.6107   -5.7743 C   0  0  0  0  0  0  0  0  0  0  0  0
   29.5601    2.4975   -3.9964 O   0  0  0  0  0  0  0  0  0  0  0  0
   28.1219    2.4827   -8.4163 O   0  0  0  0  0  0  0  0  0  0  0  0
   31.8376    3.1615   -4.4804 C   0  0  0  0  0  0  0  0  0  0  0  0
   29.5277    2.5520   -8.6670 C   0  0  0  0  0  0  0  0  0  0  0  0
   32.3948    5.7739   -5.9862 O   0  0  0  0  0  0  0  0  0  0  0  0
   34.7306    4.5863   -4.9615 C   0  0  0  0  0  0  0  0  0  0  0  0
   30.7321    2.0528   -4.0540 C   0  0  0  0  0  0  0  0  0  0  0  0
   38.2891    1.8326   -5.9028 O   0  0  0  0  0  0  0  0  0  0  0  0
   29.7293    2.6438  -10.1633 C   0  0  0  0  0  0  0  0  0  0  0  0
   40.0169    2.9088   -4.0589 C   0  0  0  0  0  0  0  0  0  0  0  0
   38.2478    4.6182   -3.6457 C   0  0  0  0  0  0  0  0  0  0  0  0
   34.3158    4.4177   -6.2903 N   0  0  0  0  0  0  0  0  0  0  0  0
   28.8779    3.5520  -10.8086 O   0  0  0  0  0  0  0  0  0  0  0  0
   38.0064    2.9679   -5.3461 C   0  0  0  0  0  0  0  0  0  0  0  0
   32.1832    2.6100   -5.7700 O   0  0  0  0  0  0  0  0  0  0  0  0
   30.4888    4.6717   -8.1025 O   0  0  0  0  0  0  0  0  0  0  0  0
   36.1706    4.4770   -4.8472 C   0  0  0  0  0  0  0  0  0  0  0  0
   36.9699    5.0868   -3.8660 C   0  0  0  0  0  0  0  0  0  0  0  0
   32.1137    3.4354   -6.9088 C   0  0  0  0  0  0  0  0  0  0  0  0
   33.2077    4.1299   -4.1658 C   0  0  0  0  0  0  0  0  0  0  0  0
   30.8224    3.2166   -7.8524 C   0  0  0  0  0  0  0  0  0  0  0  0
   36.2376    3.3592   -6.9827 N   0  0  0  0  0  0  0  0  0  0  0  0
   30.9543    0.8278   -4.5048 O   0  0  0  0  0  0  0  0  0  0  0  0
  1  9  2  0
  1 16  1  0
  1 23  1  0
  2 16  1  0
  2 26  2  0
  3 14  1  0
  3 15  1  0
  3 18  1  0
  4 18  1  0
  4 21  1  0
  4 26  1  0
  5 11  2  0
  6  8  1  0
  7 11  1  0
  7 19  1  0
  7 24  1  0
  8 13  1  0
  8 25  1  0
 10 16  1  0
 10 21  1  0
 10 24  1  0
 11 27  1  0
 12 18  2  0
 13 17  1  0
 15 22  2  0
 19 23  1  0
 20 25  1  0
 21 22  1  0
 23 25  1  0
M  END
>  <ID>  (1) 
conformer_0

$$$$
