
     RDKit          3D

 27 28  0  0  0  0  0  0  0  0999 V2000
   29.5568    1.8687   -9.2239 O   0  0  0  0  0  0  0  0  0  0  0  0
   36.2091    4.3887   -5.9584 C   0  0  0  0  0  0  0  0  0  0  0  0
   29.4728    1.2099   -5.2475 O   0  0  0  0  0  0  0  0  0  0  0  0
   29.9733    3.2036   -9.3286 C   0  0  0  0  0  0  0  0  0  0  0  0
   30.8296    2.8505   -7.0611 C   0  0  0  0  0  0  0  0  0  0  0  0
   29.9513    2.1665   -4.4865 C   0  0  0  0  0  0  0  0  0  0  0  0
   29.1108    2.5666   -3.6664 O   0  0  0  0  0  0  0  0  0  0  0  0
   31.2720    2.9557   -4.5105 O   0  0  0  0  0  0  0  0  0  0  0  0
   32.1325    4.1708   -4.7169 C   0  0  0  0  0  0  0  0  0  0  0  0
   36.1940    3.8109   -7.3140 C   0  0  0  0  0  0  0  0  0  0  0  0
   30.9200    3.6393   -8.2924 C   0  0  0  0  0  0  0  0  0  0  0  0
   33.2379    4.5281   -3.7346 C   0  0  0  0  0  0  0  0  0  0  0  0
   31.5081    4.2796   -7.0871 C   0  0  0  0  0  0  0  0  0  0  0  0
   34.5502    4.7476   -4.2235 O   0  0  0  0  0  0  0  0  0  0  0  0
   37.9253    1.9259   -5.8032 C   0  0  0  0  0  0  0  0  0  0  0  0
   37.9971    5.0602   -4.2298 C   0  0  0  0  0  0  0  0  0  0  0  0
   35.0258    5.1084   -5.5074 C   0  0  0  0  0  0  0  0  0  0  0  0
   33.8528    5.1321   -6.4588 C   0  0  0  0  0  0  0  0  0  0  0  0
   38.2134    3.0410   -5.2098 C   0  0  0  0  0  0  0  0  0  0  0  0
   31.9641    1.8950   -6.9987 O   0  0  0  0  0  0  0  0  0  0  0  0
   32.6982    4.2349   -6.1191 C   0  0  0  0  0  0  0  0  0  0  0  0
   37.6861    6.2672   -3.9403 N   0  0  0  0  0  0  0  0  0  0  0  0
   39.1581    4.4288   -3.7784 N   0  0  0  0  0  0  0  0  0  0  0  0
   33.9612    5.3036   -7.8453 O   0  0  0  0  0  0  0  0  0  0  0  0
   37.3366    4.1909   -5.1243 C   0  0  0  0  0  0  0  0  0  0  0  0
   31.1871    5.2462   -4.6535 O   0  0  0  0  0  0  0  0  0  0  0  0
   39.2373    3.2510   -4.3765 N   0  0  0  0  0  0  0  0  0  0  0  0
  1  4  1  0
  2 10  1  0
  2 17  1  0
  2 25  1  0
  3  6  2  0
  4 11  1  0
  5 11  1  0
  5 20  1  0
  6  7  1  0
  6  8  1  0
  8  9  1  0
  9 12  1  0
  9 21  1  0
  9 26  1  0
 11 13  1  0
 12 14  1  0
 13 21  1  0
 14 17  1  0
 15 19  2  0
 16 22  2  0
 16 23  1  0
 16 25  1  0
 17 18  1  0
 18 21  1  0
 18 24  1  0
 19 25  1  0
 19 27  1  0
 23 27  1  0
M  END
>  <ID>  (1) 
conformer_0

$$$$
