
     RDKit          3D

 27 29  0  0  0  0  0  0  0  0999 V2000
   35.2235    4.8921   -5.9790 C   0  0  0  0  0  0  0  0  0  0  0  0
   39.3924    3.0607   -4.3372 O   0  0  0  0  0  0  0  0  0  0  0  0
   33.4285    4.0607   -2.7517 F   0  0  0  0  0  0  0  0  0  0  0  0
   32.4733    4.2563   -4.9832 C   0  0  0  0  0  0  0  0  0  0  0  0
   33.6490    4.0662   -4.0915 C   0  0  0  0  0  0  0  0  0  0  0  0
   31.7332    2.9004   -5.0414 C   0  0  0  0  0  0  0  0  0  0  0  0
   34.0175    5.2440   -6.7289 C   0  0  0  0  0  0  0  0  0  0  0  0
   34.9673    4.3447   -4.5969 C   0  0  0  0  0  0  0  0  0  0  0  0
   31.7205    4.7457   -7.2959 C   0  0  0  0  0  0  0  0  0  0  0  0
   29.0679    1.0970  -10.2757 O   0  0  0  0  0  0  0  0  0  0  0  0
   30.8699    2.7659   -6.2481 C   0  0  0  0  0  0  0  0  0  0  0  0
   31.2134    5.8892   -7.5110 O   0  0  0  0  0  0  0  0  0  0  0  0
   37.6523    4.5762   -4.8574 C   0  0  0  0  0  0  0  0  0  0  0  0
   29.4759    3.3983   -9.7416 C   0  0  0  0  0  0  0  0  0  0  0  0
   37.2449    5.9854   -4.6315 C   0  0  0  0  0  0  0  0  0  0  0  0
   32.8024    4.5524   -6.3741 C   0  0  0  0  0  0  0  0  0  0  0  0
   37.3835    3.7574   -6.0760 C   0  0  0  0  0  0  0  0  0  0  0  0
   31.0087    3.4207   -7.7396 C   0  0  0  0  0  0  0  0  0  0  0  0
   29.8309    4.0181   -8.5335 O   0  0  0  0  0  0  0  0  0  0  0  0
   39.4722    5.0987   -3.3952 O   0  0  0  0  0  0  0  0  0  0  0  0
   30.0313    1.9643   -9.6858 C   0  0  0  0  0  0  0  0  0  0  0  0
   36.2978    4.3567   -6.9597 C   0  0  0  0  0  0  0  0  0  0  0  0
   31.4962    5.2786   -4.4646 C   0  0  0  0  0  0  0  0  0  0  0  0
   38.9395    4.2071   -4.1138 C   0  0  0  0  0  0  0  0  0  0  0  0
   31.0323    2.0333   -8.5453 C   0  0  0  0  0  0  0  0  0  0  0  0
   31.4168    2.5672   -3.6704 F   0  0  0  0  0  0  0  0  0  0  0  0
   28.8090    3.6647  -10.7932 O   0  0  0  0  0  0  0  0  0  0  0  0
  1  7  1  0
  1  8  1  0
  1 22  1  0
  2 24  2  0
  3  5  1  0
  4  5  1  0
  4  6  1  0
  4 16  1  0
  4 23  1  0
  5  8  1  0
  6 11  1  0
  6 26  1  0
  7 16  1  0
  9 12  2  0
  9 16  1  0
  9 18  1  0
 10 21  1  0
 11 18  1  0
 13 15  1  0
 13 17  1  0
 13 24  1  0
 14 19  1  0
 14 21  1  0
 14 27  2  0
 17 22  1  0
 18 19  1  0
 18 25  1  0
 20 24  1  0
 21 25  1  0
M  END
>  <ID>  (1) 
conformer_0

$$$$
