
     RDKit          3D

 38 43  0  0  0  0  0  0  0  0999 V2000
   37.7725    2.7273   -5.9684 C   0  0  0  0  0  0  0  0  0  0  0  0
   33.3692    2.4739   -4.5747 F   0  0  0  0  0  0  0  0  0  0  0  0
   34.6004    4.2811   -3.2218 C   0  0  0  0  0  0  0  0  0  0  0  0
   28.5437    0.8587   -4.9842 C   0  0  0  0  0  0  0  0  0  0  0  0
   37.8167    6.8189   -3.8311 C   0  0  0  0  0  0  0  0  0  0  0  0
   30.9967    4.1755   -8.1190 C   0  0  0  0  0  0  0  0  0  0  0  0
   30.2904    2.9890   -7.4975 C   0  0  0  0  0  0  0  0  0  0  0  0
   35.0783    5.2047   -5.4065 C   0  0  0  0  0  0  0  0  0  0  0  0
   29.6221    2.1077   -8.1263 O   0  0  0  0  0  0  0  0  0  0  0  0
   36.3559    5.1990   -4.5260 C   0  0  0  0  0  0  0  0  0  0  0  0
   35.2979    3.0245   -7.2008 O   0  0  0  0  0  0  0  0  0  0  0  0
   33.6656    4.5297   -7.1691 C   0  0  0  0  0  0  0  0  0  0  0  0
   39.1963    5.9816   -3.9283 C   0  0  0  0  0  0  0  0  0  0  0  0
   28.7096    1.2268   -3.4845 C   0  0  0  0  0  0  0  0  0  0  0  0
   31.4379   -1.0245   -3.8553 O   0  0  0  0  0  0  0  0  0  0  0  0
   33.8940    4.8471   -4.5763 C   0  0  0  0  0  0  0  0  0  0  0  0
   36.8662    4.8246   -6.8518 C   0  0  0  0  0  0  0  0  0  0  0  0
   35.2489    4.3357   -6.6014 C   0  0  0  0  0  0  0  0  0  0  0  0
   29.3520   -1.2748   -3.0457 O   0  0  0  0  0  0  0  0  0  0  0  0
   37.5310    4.2083   -4.1670 C   0  0  0  0  0  0  0  0  0  0  0  0
   31.9267    5.9577   -6.5853 O   0  0  0  0  0  0  0  0  0  0  0  0
   36.6920    6.6217   -4.8967 C   0  0  0  0  0  0  0  0  0  0  0  0
   32.7915    3.8073   -4.8980 C   0  0  0  0  0  0  0  0  0  0  0  0
   31.7118    3.8450   -5.8085 O   0  0  0  0  0  0  0  0  0  0  0  0
   30.3169   -0.5551   -3.4958 C   0  0  0  0  0  0  0  0  0  0  0  0
   39.5462    2.3435   -4.0445 O   0  0  0  0  0  0  0  0  0  0  0  0
   32.0899    4.5799   -7.0254 C   0  0  0  0  0  0  0  0  0  0  0  0
   30.7015    2.7537   -6.0409 C   0  0  0  0  0  0  0  0  0  0  0  0
   29.6694    1.6639   -5.5906 C   0  0  0  0  0  0  0  0  0  0  0  0
   39.0041    2.3085   -5.3209 C   0  0  0  0  0  0  0  0  0  0  0  0
   30.2234    0.9523   -3.3545 C   0  0  0  0  0  0  0  0  0  0  0  0
   35.9248    5.0900   -2.9055 S   0  0  0  0  0  0  0  0  0  0  0  0
   30.1751    4.2198   -9.4180 O   0  0  0  0  0  0  0  0  0  0  0  0
   37.4598    4.2414   -5.6066 C   0  0  0  0  0  0  0  0  0  0  0  0
   39.8888    3.5895   -3.3780 C   0  0  0  0  0  0  0  0  0  0  0  0
   30.7721    1.7545   -4.5971 C   0  0  0  0  0  0  0  0  0  0  0  0
   38.8084    4.5988   -3.5527 C   0  0  0  0  0  0  0  0  0  0  0  0
   33.9803    5.4004   -8.3091 O   0  0  0  0  0  0  0  0  0  0  0  0
  1 30  1  0
  1 34  1  0
  2 23  1  0
  3 16  1  0
  3 32  1  0
  4 14  1  0
  4 29  1  0
  5 13  1  0
  5 22  1  0
  6  7  1  0
  6 27  1  0
  6 33  1  0
  7  9  2  0
  7 28  1  0
  8 10  1  0
  8 16  1  0
  8 18  1  0
 10 20  1  0
 10 22  1  0
 10 32  1  0
 11 18  1  0
 12 18  1  0
 12 27  1  0
 12 38  1  0
 13 37  1  0
 14 31  1  0
 15 25  2  0
 16 23  1  0
 17 18  1  0
 17 34  1  0
 19 25  1  0
 20 34  1  0
 20 37  1  0
 21 27  1  0
 23 24  1  0
 24 27  1  0
 25 31  1  0
 26 30  1  0
 26 35  1  0
 28 29  1  0
 29 36  1  0
 31 36  1  0
 35 37  1  0
M  END
>  <ID>  (1) 
conformer_0

$$$$
