
     RDKit          3D

 27 29  0  0  0  0  0  0  0  0999 V2000
   34.0667    4.7386   -7.6301 C   0  0  0  0  0  0  0  0  0  0  0  0
   32.7403    4.6284   -7.2357 C   0  0  0  0  0  0  0  0  0  0  0  0
   39.6890    4.7963   -3.7205 C   0  0  0  0  0  0  0  0  0  0  0  0
   31.3939    2.5876   -3.2128 O   0  0  0  0  0  0  0  0  0  0  0  0
   38.5241    6.8764   -3.4247 C   0  0  0  0  0  0  0  0  0  0  0  0
   29.4954    2.6388   -7.7673 C   0  0  0  0  0  0  0  0  0  0  0  0
   37.1226    3.4966   -6.1454 C   0  0  0  0  0  0  0  0  0  0  0  0
   37.5449    2.2008   -6.2638 O   0  0  0  0  0  0  0  0  0  0  0  0
   31.8395    5.1147   -8.0137 O   0  0  0  0  0  0  0  0  0  0  0  0
   37.0402    5.6355   -4.9125 C   0  0  0  0  0  0  0  0  0  0  0  0
   39.5699    6.0163   -3.2203 C   0  0  0  0  0  0  0  0  0  0  0  0
   29.9892    3.8543   -9.8333 O   0  0  0  0  0  0  0  0  0  0  0  0
   33.1034    4.4154   -3.7113 O   0  0  0  0  0  0  0  0  0  0  0  0
   31.0129    3.4480   -5.8201 C   0  0  0  0  0  0  0  0  0  0  0  0
   37.5966    4.3895   -5.1663 C   0  0  0  0  0  0  0  0  0  0  0  0
   36.2876    3.9581   -7.1705 O   0  0  0  0  0  0  0  0  0  0  0  0
   32.3843    4.0894   -5.9823 N   0  0  0  0  0  0  0  0  0  0  0  0
   37.4582    6.6520   -4.1634 C   0  0  0  0  0  0  0  0  0  0  0  0
   34.6783    4.2347   -5.3481 C   0  0  0  0  0  0  0  0  0  0  0  0
   33.3725    4.1990   -4.9387 C   0  0  0  0  0  0  0  0  0  0  0  0
   30.7271    2.7824   -4.4209 C   0  0  0  0  0  0  0  0  0  0  0  0
   38.8141    4.0189   -4.4935 C   0  0  0  0  0  0  0  0  0  0  0  0
   38.5978    1.8366   -5.4625 C   0  0  0  0  0  0  0  0  0  0  0  0
   35.0103    4.3571   -6.6817 C   0  0  0  0  0  0  0  0  0  0  0  0
   39.2113    2.6708   -4.6343 C   0  0  0  0  0  0  0  0  0  0  0  0
   29.9139    2.5666   -9.2115 C   0  0  0  0  0  0  0  0  0  0  0  0
   30.7050    2.3401   -6.8577 C   0  0  0  0  0  0  0  0  0  0  0  0
  1  2  1  0
  1 24  1  0
  2  9  2  0
  2 17  1  0
  3 11  2  0
  3 22  1  0
  4 21  1  0
  5 11  1  0
  5 18  2  0
  6 26  1  0
  6 27  1  0
  7  8  1  0
  7 15  1  0
  7 16  1  0
  8 23  1  0
 10 15  2  0
 10 18  1  0
 12 26  1  0
 13 20  2  0
 14 17  1  0
 14 21  1  0
 14 27  1  0
 15 22  1  0
 16 24  1  0
 17 20  1  0
 19 20  1  0
 19 24  1  0
 22 25  1  0
 23 25  2  0
M  END
>  <ID>  (1) 
conformer_0

$$$$
