
     RDKit          3D

 19 20  0  0  0  0  0  0  0  0999 V2000
   32.6056    5.2408   -4.2680 C   0  0  0  0  0  0  0  0  0  0  0  0
   30.0999    3.8019   -9.6830 O   0  0  0  0  0  0  0  0  0  0  0  0
   36.3482    4.6134   -4.2312 C   0  0  0  0  0  0  0  0  0  0  0  0
   31.3353    3.8677   -7.5781 C   0  0  0  0  0  0  0  0  0  0  0  0
   35.0408    4.5600   -4.6695 C   0  0  0  0  0  0  0  0  0  0  0  0
   34.7092    4.0287   -5.9113 C   0  0  0  0  0  0  0  0  0  0  0  0
   32.4696    1.8882   -6.8757 O   0  0  0  0  0  0  0  0  0  0  0  0
   31.2716    5.2088   -7.5692 O   0  0  0  0  0  0  0  0  0  0  0  0
   31.2475    3.0855   -5.1326 C   0  0  0  0  0  0  0  0  0  0  0  0
   37.3513    4.1715   -5.1040 C   0  0  0  0  0  0  0  0  0  0  0  0
   32.1575    3.1943   -6.4179 C   0  0  0  0  0  0  0  0  0  0  0  0
   33.9972    5.0787   -3.8754 N   0  0  0  0  0  0  0  0  0  0  0  0
   35.6870    3.6490   -6.7950 C   0  0  0  0  0  0  0  0  0  0  0  0
   38.9661    4.1859   -4.5817 Cl  0  0  0  0  0  0  0  0  0  0  0  0
   37.0323    3.7040   -6.3783 C   0  0  0  0  0  0  0  0  0  0  0  0
   30.7568    3.0389   -8.6587 C   0  0  0  0  0  0  0  0  0  0  0  0
   31.2071    1.7504   -4.4707 O   0  0  0  0  0  0  0  0  0  0  0  0
   31.8050    3.9569   -3.9319 C   0  0  0  0  0  0  0  0  0  0  0  0
   33.3802    3.8751   -6.2218 O   0  0  0  0  0  0  0  0  0  0  0  0
  1 12  1  0
  1 18  1  0
  2 16  1  0
  3  5  1  0
  3 10  2  0
  4  8  1  0
  4 11  1  0
  4 16  1  0
  5  6  2  0
  5 12  1  0
  6 13  1  0
  6 19  1  0
  7 11  1  0
  9 11  1  0
  9 17  1  0
  9 18  1  0
 10 14  1  0
 10 15  1  0
 11 19  1  0
 13 15  2  0
M  END
>  <ID>  (1) 
conformer_0

$$$$
