
     RDKit          3D

 31 33  0  0  0  0  0  0  0  0999 V2000
   38.7291    1.8151   -5.4529 C   0  0  0  0  0  0  0  0  0  0  0  0
   39.7162    1.4763   -4.5704 C   0  0  0  0  0  0  0  0  0  0  0  0
   35.5094    5.0445   -7.0314 C   0  0  0  0  0  0  0  0  0  0  0  0
   33.5451    4.3254   -5.6336 C   0  0  0  0  0  0  0  0  0  0  0  0
   30.0275    1.6029   -3.4645 C   0  0  0  0  0  0  0  0  0  0  0  0
   31.6180    3.6825   -6.9836 C   0  0  0  0  0  0  0  0  0  0  0  0
   33.3824    5.0232   -7.8986 C   0  0  0  0  0  0  0  0  0  0  0  0
   28.3926    2.4183   -8.6797 O   0  0  0  0  0  0  0  0  0  0  0  0
   38.5556    4.0157   -4.4331 C   0  0  0  0  0  0  0  0  0  0  0  0
   37.0100    3.3666   -6.1747 C   0  0  0  0  0  0  0  0  0  0  0  0
   29.5230    2.9990   -8.7540 C   0  0  0  0  0  0  0  0  0  0  0  0
   27.9297    0.8384   -2.7243 O   0  0  0  0  0  0  0  0  0  0  0  0
   31.5856    1.7132   -8.3277 N   0  0  0  0  0  0  0  0  0  0  0  0
   38.6703    6.4351   -3.7298 C   0  0  0  0  0  0  0  0  0  0  0  0
   30.5595    2.6944   -7.5509 C   0  0  0  0  0  0  0  0  0  0  0  0
   39.5676    3.6583   -3.5408 C   0  0  0  0  0  0  0  0  0  0  0  0
   38.0826    3.0658   -5.3486 C   0  0  0  0  0  0  0  0  0  0  0  0
   34.1615    4.8049   -6.8154 C   0  0  0  0  0  0  0  0  0  0  0  0
   38.0566    5.3307   -4.4672 N   0  0  0  0  0  0  0  0  0  0  0  0
   34.1738    4.5545   -4.4067 O   0  0  0  0  0  0  0  0  0  0  0  0
   29.9205    3.4632   -9.9413 O   0  0  0  0  0  0  0  0  0  0  0  0
   32.0857    3.2059   -3.3363 O   0  0  0  0  0  0  0  0  0  0  0  0
   32.1337    4.5350   -7.9429 N   0  0  0  0  0  0  0  0  0  0  0  0
   36.4998    4.6532   -6.1282 C   0  0  0  0  0  0  0  0  0  0  0  0
   32.2462    3.6965   -5.7065 C   0  0  0  0  0  0  0  0  0  0  0  0
   37.0170    5.6582   -5.3296 C   0  0  0  0  0  0  0  0  0  0  0  0
   31.6233    3.0468   -4.4838 C   0  0  0  0  0  0  0  0  0  0  0  0
   40.1245    2.3958   -3.5832 C   0  0  0  0  0  0  0  0  0  0  0  0
   28.1354    1.1987   -4.9012 O   0  0  0  0  0  0  0  0  0  0  0  0
   28.5912    1.1746   -3.7338 C   0  0  0  0  0  0  0  0  0  0  0  0
   30.4843    2.3001   -4.6305 N   0  0  0  0  0  0  0  0  0  0  0  0
  1  2  2  0
  1 17  1  0
  2 28  1  0
  3 18  2  3
  3 24  1  0
  4 18  1  0
  4 20  1  0
  4 25  2  0
  5 30  1  0
  5 31  1  0
  6 15  1  0
  6 23  1  0
  6 25  1  0
  7 18  1  0
  7 23  2  0
  8 11  2  0
  9 16  1  0
  9 17  1  0
  9 19  1  0
 10 17  2  0
 10 24  1  0
 11 15  1  0
 11 21  1  0
 12 30  2  0
 13 15  1  0
 14 19  1  0
 16 28  2  0
 19 26  1  0
 22 27  2  0
 24 26  2  0
 25 27  1  0
 27 31  1  0
 29 30  1  0
M  END
>  <ID>  (1) 
conformer_0

$$$$
