
     RDKit          3D

 21 22  0  0  0  0  0  0  0  0999 V2000
   31.1063    4.4723   -5.6609 C   0  0  0  0  0  0  0  0  0  0  0  0
   39.4550    4.1192   -3.6724 C   0  0  0  0  0  0  0  0  0  0  0  0
   33.7080    5.5038   -4.5244 C   0  0  0  0  0  0  0  0  0  0  0  0
   38.1806    2.5637   -5.4902 C   0  0  0  0  0  0  0  0  0  0  0  0
   32.3638    4.0542   -7.7168 C   0  0  0  0  0  0  0  0  0  0  0  0
   34.8439    3.5012   -5.1981 O   0  0  0  0  0  0  0  0  0  0  0  0
   31.0015    4.5484   -7.1295 C   0  0  0  0  0  0  0  0  0  0  0  0
   32.3093    3.5240   -5.1974 C   0  0  0  0  0  0  0  0  0  0  0  0
   37.4634    3.8501   -5.1747 C   0  0  0  0  0  0  0  0  0  0  0  0
   31.9644    3.1809   -3.7419 C   0  0  0  0  0  0  0  0  0  0  0  0
   38.2057    4.6351   -4.1811 C   0  0  0  0  0  0  0  0  0  0  0  0
   37.7335    6.0965   -4.0706 C   0  0  0  0  0  0  0  0  0  0  0  0
   34.7406    4.9108   -7.5684 C   0  0  0  0  0  0  0  0  0  0  0  0
   30.7576    2.2379   -3.9079 C   0  0  0  0  0  0  0  0  0  0  0  0
   33.4577    4.6994   -6.9341 C   0  0  0  0  0  0  0  0  0  0  0  0
   33.6043    4.2618   -5.4710 C   0  0  0  0  0  0  0  0  0  0  0  0
   36.0595    4.1984   -5.5740 C   0  0  0  0  0  0  0  0  0  0  0  0
   36.7433    3.6502   -7.7746 O   0  0  0  0  0  0  0  0  0  0  0  0
   30.3867    5.1472   -8.1153 O   0  0  0  0  0  0  0  0  0  0  0  0
   35.9711    4.3581   -7.0589 C   0  0  0  0  0  0  0  0  0  0  0  0
   32.1573    2.7338   -8.1583 O   0  0  0  0  0  0  0  0  0  0  0  0
  1  7  1  0
  1  8  1  0
  2 11  1  0
  3 16  1  0
  4  9  1  0
  5  7  1  0
  5 15  1  0
  5 21  1  0
  6 16  1  0
  6 17  1  0
  7 19  1  0
  8 10  1  0
  8 16  1  0
  9 11  1  0
  9 17  1  0
 10 14  1  0
 11 12  1  0
 13 15  1  0
 13 20  1  0
 15 16  1  0
 17 20  1  0
 18 20  2  0
M  END
>  <ID>  (1) 
conformer_0

$$$$
