
     RDKit          3D

 34 38  0  0  0  0  0  0  0  0999 V2000
   34.1303    2.9951   -6.1217 O   0  0  0  0  0  0  0  0  0  0  0  0
   31.1650    5.6737   -7.2500 O   0  0  0  0  0  0  0  0  0  0  0  0
   33.3160    4.9772   -8.0497 C   0  0  0  0  0  0  0  0  0  0  0  0
   34.0302    4.2896   -3.1305 O   0  0  0  0  0  0  0  0  0  0  0  0
   34.6919    4.4923   -4.2289 C   0  0  0  0  0  0  0  0  0  0  0  0
   36.0636    4.8245   -4.0021 O   0  0  0  0  0  0  0  0  0  0  0  0
   34.7066    5.4655   -7.7576 C   0  0  0  0  0  0  0  0  0  0  0  0
   28.0254    1.5236   -3.7437 O   0  0  0  0  0  0  0  0  0  0  0  0
   37.5456    4.7175   -5.8742 C   0  0  0  0  0  0  0  0  0  0  0  0
   30.1355    0.2528   -4.0679 C   0  0  0  0  0  0  0  0  0  0  0  0
   29.3281    1.3942   -3.5796 C   0  0  0  0  0  0  0  0  0  0  0  0
   38.2881    5.4933   -3.7349 C   0  0  0  0  0  0  0  0  0  0  0  0
   39.8804    3.3487   -3.4694 C   0  0  0  0  0  0  0  0  0  0  0  0
   32.0299    5.2306   -4.5541 O   0  0  0  0  0  0  0  0  0  0  0  0
   29.8628    3.8877   -9.0907 C   0  0  0  0  0  0  0  0  0  0  0  0
   36.4991    3.2175   -7.3506 O   0  0  0  0  0  0  0  0  0  0  0  0
   30.5514    2.7243   -8.5098 C   0  0  0  0  0  0  0  0  0  0  0  0
   29.4700    3.7299  -10.4120 O   0  0  0  0  0  0  0  0  0  0  0  0
   35.1461    5.2312   -6.3657 C   0  0  0  0  0  0  0  0  0  0  0  0
   31.1197    2.2883   -5.0453 C   0  0  0  0  0  0  0  0  0  0  0  0
   32.5995    4.4991   -5.6789 C   0  0  0  0  0  0  0  0  0  0  0  0
   38.6456    4.0379   -3.8192 C   0  0  0  0  0  0  0  0  0  0  0  0
   39.9183    2.1029   -4.3034 C   0  0  0  0  0  0  0  0  0  0  0  0
   38.3083    3.5998   -5.2206 C   0  0  0  0  0  0  0  0  0  0  0  0
   34.1328    4.3143   -5.5995 C   0  0  0  0  0  0  0  0  0  0  0  0
   32.4358    5.3290   -6.9359 C   0  0  0  0  0  0  0  0  0  0  0  0
   31.2922    0.8950   -4.7870 O   0  0  0  0  0  0  0  0  0  0  0  0
   36.3443    4.2269   -6.5294 C   0  0  0  0  0  0  0  0  0  0  0  0
   37.0403    5.6083   -4.7384 C   0  0  0  0  0  0  0  0  0  0  0  0
   31.5537    3.3799   -6.0570 C   0  0  0  0  0  0  0  0  0  0  0  0
   31.4809    3.0144   -7.4783 O   0  0  0  0  0  0  0  0  0  0  0  0
   30.7033    1.7826   -9.3688 O   0  0  0  0  0  0  0  0  0  0  0  0
   30.0592    2.6587   -4.0251 C   0  0  0  0  0  0  0  0  0  0  0  0
   38.6074    2.1143   -5.1462 C   0  0  0  0  0  0  0  0  0  0  0  0
  1 25  1  0
  2 26  1  0
  3  7  1  0
  3 26  1  0
  4  5  2  0
  5  6  1  0
  5 25  1  0
  6 29  1  0
  7 19  1  0
  8 11  1  0
  9 24  1  0
  9 28  1  0
  9 29  1  0
 10 11  1  0
 10 27  1  0
 11 33  1  0
 12 22  1  0
 12 29  1  0
 13 22  1  0
 13 23  1  0
 14 21  1  0
 15 17  1  0
 15 18  1  0
 16 28  1  0
 17 31  1  0
 17 32  2  0
 19 25  1  0
 19 28  1  0
 20 27  1  0
 20 30  1  0
 20 33  1  0
 21 25  1  0
 21 26  1  0
 21 30  1  0
 22 24  1  0
 23 34  1  0
 24 34  1  0
 30 31  1  0
M  END
>  <ID>  (1) 
conformer_0

$$$$
