
     RDKit          3D

 26 27  0  0  0  0  0  0  0  0999 V2000
   35.4171    4.5561   -4.7345 N   0  0  0  0  0  0  0  0  0  0  0  0
   36.6896    4.2762   -4.7380 C   0  0  0  0  0  0  0  0  0  0  0  0
   34.6768    4.2003   -7.5282 S   0  0  0  0  0  0  0  0  0  0  0  0
   30.8115    2.2256   -4.8321 C   0  0  0  0  0  0  0  0  0  0  0  0
   28.7440    0.5782   -2.3529 O   0  0  0  0  0  0  0  0  0  0  0  0
   30.9239    2.8961   -8.1896 C   0  0  0  0  0  0  0  0  0  0  0  0
   33.5876    4.1484   -6.1330 C   0  0  0  0  0  0  0  0  0  0  0  0
   31.3746    4.0507   -7.3789 C   0  0  0  0  0  0  0  0  0  0  0  0
   38.4292    2.6701   -5.1007 N   0  0  0  0  0  0  0  0  0  0  0  0
   39.3843    3.1606   -4.3773 C   0  0  0  0  0  0  0  0  0  0  0  0
   28.4538    2.5763   -8.4717 O   0  0  0  0  0  0  0  0  0  0  0  0
   38.5782    5.3242   -3.6460 C   0  0  0  0  0  0  0  0  0  0  0  0
   28.7993    1.0343   -4.7334 C   0  0  0  0  0  0  0  0  0  0  0  0
   32.2077    3.7714   -6.2623 N   0  0  0  0  0  0  0  0  0  0  0  0
   30.7026    1.7756   -3.3664 S   0  0  0  0  0  0  0  0  0  0  0  0
   29.6864    1.7305   -5.5516 C   0  0  0  0  0  0  0  0  0  0  0  0
   37.2246    3.1109   -5.2895 C   0  0  0  0  0  0  0  0  0  0  0  0
   31.7982    2.9544   -5.2115 N   0  0  0  0  0  0  0  0  0  0  0  0
   29.7054    3.4824  -10.1927 O   0  0  0  0  0  1  0  0  0  0  0  0
   33.3801    4.5776   -3.7505 O   0  0  0  0  0  0  0  0  0  0  0  0
   30.8566    5.2160   -7.5669 O   0  0  0  0  0  0  0  0  0  0  0  0
   34.1447    4.4099   -4.7887 C   0  0  0  0  0  0  0  0  0  0  0  0
   37.3729    5.2804   -4.1402 C   0  0  0  0  0  0  0  0  0  0  0  0
   39.5162    4.3374   -3.7194 C   0  0  0  0  0  0  0  0  0  0  0  0
   29.6252    3.0277   -8.9795 P   0  0  0  0  0  4  0  0  0  0  0  0
   29.3235    1.0593   -3.4287 C   0  0  0  0  0  0  0  0  0  0  0  0
  1  2  1  0
  1 22  1  0
  2 17  2  0
  2 23  1  0
  3  7  2  0
  4 15  1  0
  4 16  1  0
  4 18  2  3
  5 26  2  0
  6  8  1  0
  6 25  1  0
  7 14  1  0
  7 22  1  0
  8 14  1  0
  8 21  2  0
  9 10  2  0
  9 17  1  0
 10 24  1  0
 11 25  1  0
 12 23  2  0
 12 24  1  0
 13 16  1  0
 13 26  1  0
 14 18  1  0
 15 26  1  0
 19 25  2  0
 20 22  2  0
M  END
>  <ID>  (1) 
conformer_0

$$$$
