
     RDKit          3D

 43 47  0  0  0  0  0  0  0  0999 V2000
   31.0301    2.3874   -5.3317 O   0  0  0  0  0  0  0  0  0  0  0  0
   38.5129    6.6863   -3.5514 C   0  0  0  0  0  0  0  0  0  0  0  0
   39.0152    4.3665   -3.8810 C   0  0  0  0  0  0  0  0  0  0  0  0
   37.4967    2.9698   -7.0583 C   0  0  0  0  0  0  0  0  0  0  0  0
   29.3815    0.2626   -3.8786 C   0  0  0  0  0  0  0  0  0  0  0  0
   30.3233    2.6576   -4.1902 C   0  0  0  0  0  0  0  0  0  0  0  0
   31.6636    3.5322   -5.1091 C   0  0  0  0  0  0  0  0  0  0  0  0
   40.4390    3.3611   -2.3575 O   0  0  0  0  0  0  0  0  0  0  0  0
   30.4488   -0.3028   -4.5630 O   0  0  0  0  0  0  0  0  0  0  0  0
   29.7900    3.3954   -8.4238 C   0  0  0  0  0  0  0  0  0  0  0  0
   28.0232    1.0134   -5.8060 O   0  0  0  0  0  0  0  0  0  0  0  0
   33.1986    5.1024   -3.7836 C   0  0  0  0  0  0  0  0  0  0  0  0
   38.1597    2.6956   -5.9459 C   0  0  0  0  0  0  0  0  0  0  0  0
   34.9796    5.3819   -5.6511 N   0  0  0  0  0  0  0  0  0  0  0  0
   37.3969    4.0132   -5.9060 C   0  0  0  0  0  0  0  0  0  0  0  0
   28.4242    1.2843  -10.1386 C   0  0  0  0  0  0  0  0  0  0  0  0
   28.9113   -0.7454   -3.0697 O   0  0  0  0  0  0  0  0  0  0  0  0
   39.7514    3.2006   -3.4261 C   0  0  0  0  0  0  0  0  0  0  0  0
   31.5632    4.8958   -7.1998 C   0  0  0  0  0  0  0  0  0  0  0  0
   38.0757    4.7393   -4.8325 C   0  0  0  0  0  0  0  0  0  0  0  0
   35.4018    4.2542   -3.5619 O   0  0  0  0  0  0  0  0  0  0  0  0
   34.6376    4.9783   -4.2893 C   0  0  0  0  0  0  0  0  0  0  0  0
   28.1703    0.8670   -4.5311 C   0  0  0  0  0  0  0  0  0  0  0  0
   32.6423    2.8242   -2.9310 O   0  0  0  0  0  0  0  0  0  0  0  0
   32.0313    2.7715   -8.2131 O   0  0  0  0  0  0  0  0  0  0  0  0
   33.8254    5.1322   -6.4693 C   0  0  0  0  0  0  0  0  0  0  0  0
   38.9274    1.9895   -5.2403 C   0  0  0  0  0  0  0  0  0  0  0  0
   27.8911    3.3174  -11.6134 C   0  0  0  0  0  0  0  0  0  0  0  0
   34.2689    4.8284   -7.8001 C   0  0  0  0  0  0  0  0  0  0  0  0
   30.0855    1.4874   -3.1549 C   0  0  0  0  0  0  0  0  0  0  0  0
   36.7866    3.5996   -8.0895 O   0  0  0  0  0  0  0  0  0  0  0  0
   35.7859    4.5878   -7.7320 C   0  0  0  0  0  0  0  0  0  0  0  0
   37.6834    6.1877   -4.7095 C   0  0  0  0  0  0  0  0  0  0  0  0
   32.4732    3.7690   -3.8901 C   0  0  0  0  0  0  0  0  0  0  0  0
   32.5073    5.5729   -6.1387 C   0  0  0  0  0  0  0  0  0  0  0  0
   28.5248    2.6752  -10.4352 C   0  0  0  0  0  0  0  0  0  0  0  0
   31.3662    4.7702   -5.8104 C   0  0  0  0  0  0  0  0  0  0  0  0
   39.4368    5.5981   -3.0315 C   0  0  0  0  0  0  0  0  0  0  0  0
   29.6442    3.3796   -9.8837 N   0  0  0  0  0  0  0  0  0  0  0  0
   36.1814    4.9012   -6.3112 C   0  0  0  0  0  0  0  0  0  0  0  0
   27.1992    1.2499   -3.7998 O   0  0  0  0  0  0  0  0  0  0  0  0
   31.1641    3.6617   -7.9818 C   0  0  0  0  0  0  0  0  0  0  0  0
   39.6858    2.0088   -4.0748 N   0  0  0  0  0  0  0  0  0  0  0  0
  1  6  1  0
  1  7  1  0
  2 33  1  0
  2 38  1  0
  3 18  1  0
  3 20  2  0
  3 38  1  0
  4 13  1  0
  4 31  1  0
  5  9  1  0
  5 17  1  0
  5 23  1  0
  5 30  1  0
  6 30  1  0
  7 34  1  0
  7 37  1  0
  8 18  2  0
 10 39  1  0
 10 42  1  0
 11 23  2  0
 12 22  1  0
 12 34  1  0
 13 15  1  0
 13 27  2  0
 14 22  1  0
 14 26  1  0
 14 40  1  0
 15 20  1  0
 15 40  1  0
 16 36  1  0
 18 43  1  0
 19 37  1  0
 19 42  1  0
 20 33  1  0
 21 22  2  0
 23 41  1  0
 24 34  1  0
 25 42  2  0
 26 29  1  0
 26 35  1  0
 27 43  1  0
 28 36  1  0
 29 32  1  0
 31 32  1  0
 32 40  1  0
 35 37  1  0
 36 39  1  0
M  END
>  <ID>  (1) 
conformer_0

$$$$
