
     RDKit          3D

 33 35  0  0  0  0  0  0  0  0999 V2000
   31.4812    2.4788   -4.7755 S   0  0  0  0  0  4  0  0  0  0  0  0
   33.0792    5.1342   -6.9906 C   0  0  0  0  0  0  0  0  0  0  0  0
   38.3734    5.3142   -3.6718 C   0  0  0  0  0  0  0  0  0  0  0  0
   32.1008    4.6904   -5.9525 C   0  0  0  0  0  0  0  0  0  0  0  0
   31.8237    2.0481   -7.9640 O   0  0  0  0  0  0  0  0  0  0  0  0
   37.6139    4.5405   -6.5869 C   0  0  0  0  0  0  0  0  0  0  0  0
   32.2116    4.6381   -3.4202 F   0  0  0  0  0  0  0  0  0  0  0  0
   31.2071    3.4869   -6.0406 C   0  0  0  0  0  0  0  0  0  0  0  0
   30.9781    2.9640   -7.4248 C   0  0  0  0  0  0  0  0  0  0  0  0
   37.7750    3.4055   -5.5370 C   0  0  0  0  0  0  0  0  0  0  0  0
   37.5895    2.2268   -6.1938 O   0  0  0  0  0  0  0  0  0  0  0  0
   32.9500    4.4089   -4.6839 C   0  0  0  0  0  0  0  0  0  0  0  0
   28.4719    3.7889  -11.3110 O   0  0  0  0  0  0  0  0  0  0  0  0
   36.7422    3.5160   -4.3187 C   0  0  0  0  0  0  0  0  0  0  0  0
   36.8912    4.9071   -3.5995 C   0  0  0  0  0  0  0  0  0  0  0  0
   38.8550    6.1728   -4.7716 C   0  0  0  0  0  0  0  0  0  0  0  0
   32.7952    3.0408   -3.9186 C   0  0  0  0  0  0  0  0  0  0  0  0
   29.8146    2.8050   -9.6196 C   0  0  0  0  0  0  0  0  0  0  0  0
   33.5516    2.3741   -2.9185 C   0  0  0  0  0  0  0  0  0  0  0  0
   34.4176    4.3657   -5.1210 C   0  0  0  0  0  0  0  0  0  0  0  0
   33.7518    6.7250   -5.2237 C   0  0  0  0  0  0  0  0  0  0  0  0
   35.5027    6.0828   -7.0320 C   0  0  0  0  0  0  0  0  0  0  0  0
   34.2670    5.8610   -6.2391 C   0  0  0  0  0  0  0  0  0  0  0  0
   30.1488    3.6611   -8.4238 C   0  0  0  0  0  0  0  0  0  0  0  0
   33.4025    4.5049   -8.1267 F   0  0  0  0  0  0  0  0  0  0  0  0
   30.5048    2.5053   -3.7187 O   0  0  0  0  0  1  0  0  0  0  0  0
   31.6509    1.1961   -5.2668 O   0  0  0  0  0  1  0  0  0  0  0  0
   28.5043    2.8585  -10.2224 C   0  0  0  0  0  0  0  0  0  0  0  0
   35.3127    3.2355   -4.6785 C   0  0  0  0  0  0  0  0  0  0  0  0
   31.1428    5.7693   -5.9210 O   0  0  0  0  0  0  0  0  0  0  0  0
   39.1962    3.3086   -4.8662 C   0  0  0  0  0  0  0  0  0  0  0  0
   36.2695    4.6000   -7.2596 C   0  0  0  0  0  0  0  0  0  0  0  0
   39.2639    4.0276   -3.5740 C   0  0  0  0  0  0  0  0  0  0  0  0
  1  8  1  0
  1 17  1  0
  1 26  1  0
  1 27  1  0
  2  4  1  0
  2 23  1  0
  2 25  1  0
  3 15  1  0
  3 16  1  0
  3 33  1  0
  4  8  1  0
  4 12  1  0
  4 30  1  0
  5  9  1  0
  6 10  1  0
  6 32  1  0
  7 12  1  0
  8  9  1  0
  9 24  1  0
 10 11  1  0
 10 14  1  0
 10 31  1  0
 12 17  1  0
 12 20  1  0
 13 28  1  0
 14 15  1  0
 14 29  1  0
 17 19  1  0
 18 24  1  0
 18 28  1  0
 20 29  1  0
 21 23  1  0
 22 23  1  0
 22 32  1  0
 31 33  1  0
M  END
>  <ID>  (1) 
conformer_0

$$$$
