
     RDKit          3D

 29 30  0  0  0  0  0  0  0  0999 V2000
   31.1984    5.6694   -5.8700 O   0  0  0  0  0  0  0  0  0  0  0  0
   30.3263    3.1220   -9.2613 C   0  0  0  0  0  0  0  0  0  0  0  0
   36.8517    4.4288   -7.5847 C   0  0  0  0  0  0  0  0  0  0  0  0
   39.3361    5.6157   -3.5027 C   0  0  0  0  0  0  0  0  0  0  0  0
   37.0676    2.3726   -6.3534 O   0  0  0  0  0  0  0  0  0  0  0  0
   31.4711    2.3415   -5.9130 C   0  0  0  0  0  0  0  0  0  0  0  0
   36.3540    5.8343   -7.6904 F   0  0  0  0  0  0  0  0  0  0  0  0
   32.0165    4.7248   -5.4664 C   0  0  0  0  0  0  0  0  0  0  0  0
   37.3714    5.7140   -4.8874 C   0  0  0  0  0  0  0  0  0  0  0  0
   28.1396    1.7313   -3.9652 O   0  0  0  0  0  0  0  0  0  0  0  0
   30.7996    4.1340   -8.2789 C   0  0  0  0  0  0  0  0  0  0  0  0
   34.3067    5.5835   -4.9444 C   0  0  0  0  0  0  0  0  0  0  0  0
   31.5979    2.3338   -4.3342 C   0  0  0  0  0  0  0  0  0  0  0  0
   38.4628    3.6644   -4.5200 C   0  0  0  0  0  0  0  0  0  0  0  0
   32.2535    3.5490   -6.3932 C   0  0  0  0  0  0  0  0  0  0  0  0
   36.6690    3.6389   -6.2603 C   0  0  0  0  0  0  0  0  0  0  0  0
   38.2572    6.3481   -4.0503 C   0  0  0  0  0  0  0  0  0  0  0  0
   37.4875    4.3813   -5.1855 C   0  0  0  0  0  0  0  0  0  0  0  0
   29.6080    3.5897  -10.2006 O   0  0  0  0  0  0  0  0  0  0  0  0
   32.3073    3.9935   -7.8511 C   0  0  0  0  0  0  0  0  0  0  0  0
   30.8395    2.0162   -9.2088 O   0  0  0  0  0  0  0  0  0  0  0  0
   35.2384    3.6217   -6.0229 N   0  0  0  0  0  0  0  0  0  0  0  0
   30.2735    2.4946   -3.7268 C   0  0  0  0  0  0  0  0  0  0  0  0
   32.9254    5.1565   -4.3297 C   0  0  0  0  0  0  0  0  0  0  0  0
   29.3794    1.2967   -3.7116 C   0  0  0  0  0  0  0  0  0  0  0  0
   34.5174    4.7967   -6.2196 C   0  0  0  0  0  0  0  0  0  0  0  0
   33.7537    5.0532   -7.6028 C   0  0  0  0  0  0  0  0  0  0  0  0
   33.2254    4.2535   -3.1302 C   0  0  0  0  0  0  0  0  0  0  0  0
   39.3839    4.2524   -3.6885 C   0  0  0  0  0  0  0  0  0  0  0  0
  1  8  1  0
  2 11  1  0
  2 19  2  0
  2 21  1  0
  3  7  1  0
  3 16  1  0
  4 17  2  0
  4 29  1  0
  5 16  1  0
  6 13  1  0
  6 15  1  0
  8 15  1  0
  8 24  1  0
  9 17  1  0
  9 18  2  0
 10 25  1  0
 11 20  1  0
 12 24  1  0
 12 26  1  0
 13 23  1  0
 14 18  1  0
 14 29  2  0
 15 20  1  0
 16 18  1  0
 16 22  1  0
 20 27  1  0
 22 26  1  0
 23 25  1  0
 24 28  1  0
 26 27  1  0
M  END
>  <ID>  (1) 
conformer_0

$$$$
