
     RDKit          3D

 27 28  0  0  0  0  0  0  0  0999 V2000
   32.3217    4.3111   -5.8892 C   0  0  0  0  0  0  0  0  0  0  0  0
   37.6135    5.0274   -3.8517 N   0  0  0  0  0  0  0  0  0  0  0  0
   35.5306    5.0820   -4.9014 N   0  0  0  0  0  0  0  0  0  0  0  0
   33.3440    5.5912   -5.8788 C   0  0  0  0  0  0  0  0  0  0  0  0
   37.1290    3.6530   -5.8670 C   0  0  0  0  0  0  0  0  0  0  0  0
   35.2339    4.3134   -7.0317 C   0  0  0  0  0  0  0  0  0  0  0  0
   29.4129    1.0199   -3.7543 P   0  0  0  0  0  4  0  0  0  0  0  0
   38.7711    4.6724   -3.5197 C   0  0  0  0  0  0  0  0  0  0  0  0
   34.7701    4.9797   -5.9347 C   0  0  0  0  0  0  0  0  0  0  0  0
   30.7874    2.3745   -5.7036 C   0  0  0  0  0  0  0  0  0  0  0  0
   39.5395    3.6583   -3.9108 C   0  0  0  0  0  0  0  0  0  0  0  0
   29.7824    3.6653  -10.0276 O   0  0  0  0  0  0  0  0  0  0  0  0
   32.7819    2.2158   -7.1968 O   0  0  0  0  0  0  0  0  0  0  0  0
   36.3336    3.5795   -6.9588 N   0  0  0  0  0  0  0  0  0  0  0  0
   39.2597    2.8263   -4.9507 C   0  0  0  0  0  0  0  0  0  0  0  0
   29.8217    0.2132   -2.5494 O   0  0  0  0  0  1  0  0  0  0  0  0
   31.0493    6.1508   -6.6027 O   0  0  0  0  0  0  0  0  0  0  0  0
   28.9225    0.1070   -4.8100 O   0  0  0  0  0  0  0  0  0  0  0  0
   31.3169    4.1282   -8.2196 C   0  0  0  0  0  0  0  0  0  0  0  0
   30.0847    3.3713   -8.6285 C   0  0  0  0  0  0  0  0  0  0  0  0
   31.3181    4.8356   -6.9748 C   0  0  0  0  0  0  0  0  0  0  0  0
   30.8220    1.8994   -4.2150 C   0  0  0  0  0  0  0  0  0  0  0  0
   28.3650    2.0054   -3.4691 O   0  0  0  0  0  0  0  0  0  0  0  0
   38.2841    2.8782   -5.7862 C   0  0  0  0  0  0  0  0  0  0  0  0
   36.7684    4.5811   -4.8507 C   0  0  0  0  0  0  0  0  0  0  0  0
   32.6026    4.3867   -4.4749 O   0  0  0  0  0  0  0  0  0  0  0  0
   32.1696    2.7445   -6.1194 C   0  0  0  0  0  0  0  0  0  0  0  0
  1  4  1  0
  1 21  1  0
  1 26  1  0
  1 27  1  0
  2  8  2  0
  2 25  1  0
  3  9  1  0
  3 25  2  0
  4  9  1  0
  5 14  2  0
  5 24  1  0
  5 25  1  0
  6  9  2  0
  6 14  1  0
  7 16  2  0
  7 18  1  0
  7 22  1  0
  7 23  1  0
  8 11  1  0
 10 22  1  0
 10 27  1  0
 11 15  1  0
 12 20  1  0
 13 27  1  0
 15 24  2  0
 17 21  1  0
 19 20  1  0
 19 21  1  0
M  END
>  <ID>  (1) 
conformer_0

$$$$
