
     RDKit          3D

 49 53  0  0  0  0  0  0  0  0999 V2000
   37.3350    2.4735   -7.2557 O   0  0  0  0  0  0  0  0  0  0  0  0
   33.4825    5.3167   -8.1962 O   0  0  0  0  0  0  0  0  0  0  0  0
   31.6999    3.2614   -8.3120 O   0  0  0  0  0  0  0  0  0  0  0  0
   31.9654    1.4429   -6.0119 O   0  0  0  0  0  0  0  0  0  0  0  0
   29.2759    2.3744   -8.7255 C   0  0  0  0  0  0  0  0  0  0  0  0
   29.5334    3.1444   -9.9577 N   0  0  0  0  0  0  0  0  0  0  0  0
   38.8601    2.1392   -5.5214 C   0  0  0  0  0  0  0  0  0  0  0  0
   32.0084    4.1887   -4.8671 C   0  0  0  0  0  0  0  0  0  0  0  0
   34.7569    4.5061   -6.4577 C   0  0  0  0  0  0  0  0  0  0  0  0
   37.6180    2.6246   -5.9641 C   0  0  0  0  0  0  0  0  0  0  0  0
   30.8120    2.2042   -5.5728 C   0  0  0  0  0  0  0  0  0  0  0  0
   28.6063    2.6357  -10.9779 C   0  0  0  0  0  0  0  0  0  0  0  0
   30.9500    3.2254   -4.4482 C   0  0  0  0  0  0  0  0  0  0  0  0
   34.2274    4.2312   -2.6318 O   0  0  0  0  0  0  0  0  0  0  0  0
   39.4931    0.8489   -5.7267 C   0  0  0  0  0  0  0  0  0  0  0  0
   33.3702    4.5853   -7.0043 C   0  0  0  0  0  0  0  0  0  0  0  0
   40.1748    2.1613   -3.4978 O   0  0  0  0  0  0  0  0  0  0  0  0
   35.7799    3.6401   -4.5587 O   0  0  0  0  0  0  0  0  0  0  0  0
   39.0529    4.1352   -4.1570 C   0  0  0  0  0  0  0  0  0  0  0  0
   28.9773   -0.6067   -3.3302 C   0  0  0  0  0  0  0  0  0  0  0  0
   36.9664    3.6913   -5.2707 C   0  0  0  0  0  0  0  0  0  0  0  0
   27.1701   -2.1831   -2.8689 C   0  0  0  0  0  0  0  0  0  0  0  0
   28.5190    3.3203  -12.0785 O   0  0  0  0  0  0  0  0  0  0  0  0
   34.7432    4.6162   -4.9608 C   0  0  0  0  0  0  0  0  0  0  0  0
   26.8242    0.1108   -4.0621 C   0  0  0  0  0  0  0  0  0  0  0  0
   27.7163    1.6584  -10.3394 C   0  0  0  0  0  0  0  0  0  0  0  0
   37.8910    4.6134   -4.7026 C   0  0  0  0  0  0  0  0  0  0  0  0
   32.0116    4.4790   -6.3007 C   0  0  0  0  0  0  0  0  0  0  0  0
   35.8054    5.0319   -7.2089 O   0  0  0  0  0  0  0  0  0  0  0  0
   31.3766    5.7351   -6.5407 O   0  0  0  0  0  0  0  0  0  0  0  0
   39.8614    4.9558   -3.3673 C   0  0  0  0  0  0  0  0  0  0  0  0
   39.4959    6.2807   -3.2725 C   0  0  0  0  0  0  0  0  0  0  0  0
   27.9575    1.7879   -8.8756 C   0  0  0  0  0  0  0  0  0  0  0  0
   32.4794    5.2078   -3.9432 C   0  0  0  0  0  0  0  0  0  0  0  0
   33.9382    4.9459   -3.7611 C   0  0  0  0  0  0  0  0  0  0  0  0
   28.2151   -2.9555   -2.4486 O   0  0  0  0  0  0  0  0  0  0  0  0
   27.5118   -0.7111   -2.9609 C   0  0  0  0  0  0  0  0  0  0  0  0
   38.3693    6.7864   -3.8992 C   0  0  0  0  0  0  0  0  0  0  0  0
   31.0073    3.3912   -6.9810 C   0  0  0  0  0  0  0  0  0  0  0  0
   27.2200    1.4752   -7.8750 O   0  0  0  0  0  0  0  0  0  0  0  0
   27.8703    1.0982   -4.5575 O   0  0  0  0  0  0  0  0  0  0  0  0
   29.9337   -0.1956   -2.3841 O   0  0  0  0  0  0  0  0  0  0  0  0
   29.0568    0.4282   -4.4479 C   0  0  0  0  0  0  0  0  0  0  0  0
   39.5028    2.8098   -4.3724 C   0  0  0  0  0  0  0  0  0  0  0  0
   29.6025    3.0041   -7.4883 N   0  0  0  0  0  0  0  0  0  0  0  0
   27.1549   -0.1493   -1.7185 O   0  0  0  0  0  0  0  0  0  0  0  0
   37.5920    5.9328   -4.6243 C   0  0  0  0  0  0  0  0  0  0  0  0
   30.1840    1.0890   -4.7124 O   0  0  0  0  0  0  0  0  0  0  0  0
   25.7690   -2.5044   -2.6988 C   0  0  0  0  0  0  0  0  0  0  0  0
  1 10  1  0
  2 16  1  0
  3 39  1  0
  4 11  1  0
  5  6  1  0
  5 33  1  0
  5 45  1  0
  6 12  1  0
  7 10  1  0
  7 15  1  0
  7 44  1  0
  8 13  1  0
  8 28  1  0
  8 34  1  0
  9 16  1  0
  9 24  1  0
  9 29  1  0
 10 21  1  0
 11 13  1  0
 11 48  1  0
 12 23  2  0
 12 26  1  0
 14 35  1  0
 16 28  1  0
 17 44  2  0
 18 21  1  0
 18 24  1  0
 19 27  2  0
 19 31  1  0
 19 44  1  0
 20 37  1  0
 20 42  1  0
 20 43  1  0
 21 27  1  0
 22 36  1  0
 22 37  1  0
 22 49  1  0
 24 35  1  0
 25 37  1  0
 25 41  1  0
 26 33  1  0
 27 47  1  0
 28 30  1  0
 28 39  1  0
 31 32  2  0
 32 38  1  0
 33 40  2  0
 34 35  1  0
 37 46  1  0
 38 47  2  0
 39 45  1  0
 41 43  1  0
 43 48  1  0
M  END
>  <ID>  (1) 
conformer_0

$$$$
