
     RDKit          3D

 24 24  0  0  0  0  0  0  0  0999 V2000
   37.5580    4.9296   -4.5306 C   0  0  0  0  0  0  0  0  0  0  0  0
   31.5811    1.7689   -4.7799 O   0  0  0  0  0  0  0  0  0  0  0  0
   28.9518    3.5447  -10.9260 O   0  0  0  0  0  0  0  0  0  0  0  0
   31.3090    3.3511   -7.2157 C   0  0  0  0  0  0  0  0  0  0  0  0
   29.2063    2.4894  -10.2908 C   0  0  0  0  0  0  0  0  0  0  0  0
   40.2139    2.5254   -4.2944 O   0  0  0  0  0  0  0  0  0  0  0  0
   34.2669    3.0924   -5.4850 O   0  0  0  0  0  0  0  0  0  0  0  0
   36.6528    4.2812   -5.3680 N   0  0  0  0  0  0  0  0  0  0  0  0
   37.3157    6.0731   -4.1880 O   0  0  0  0  0  0  0  0  0  0  0  0
   31.3794    4.3084   -4.9827 O   0  0  0  0  0  0  0  0  0  0  0  0
   31.7243    4.5352   -6.3815 C   0  0  0  0  0  0  0  0  0  0  0  0
   36.9877    3.0055   -5.8069 C   0  0  0  0  0  0  0  0  0  0  0  0
   31.6565    3.0960   -4.3202 C   0  0  0  0  0  0  0  0  0  0  0  0
   33.7091    4.9724   -7.8361 O   0  0  0  0  0  0  0  0  0  0  0  0
   33.1608    5.0644   -6.5353 C   0  0  0  0  0  0  0  0  0  0  0  0
   30.5239    3.6504   -8.4734 C   0  0  0  0  0  0  0  0  0  0  0  0
   38.7235    4.2690   -4.1074 N   0  0  0  0  0  0  0  0  0  0  0  0
   29.2913    1.3356  -10.7634 O   0  0  0  0  0  0  0  0  0  0  0  0
   33.7662    5.0928   -4.1656 O   0  0  0  0  0  0  0  0  0  0  0  0
   34.1134    4.4744   -5.4220 C   0  0  0  0  0  0  0  0  0  0  0  0
   35.5071    5.0803   -5.8181 C   0  0  0  0  0  0  0  0  0  0  0  0
   39.0565    3.0287   -4.5712 C   0  0  0  0  0  0  0  0  0  0  0  0
   29.3841    2.6316   -8.7777 C   0  0  0  0  0  0  0  0  0  0  0  0
   38.1308    2.3400   -5.3995 C   0  0  0  0  0  0  0  0  0  0  0  0
  1  8  1  0
  1  9  2  0
  1 17  1  0
  2 13  1  0
  3  5  2  0
  4 11  1  0
  4 16  1  0
  5 18  1  0
  5 23  1  0
  6 22  2  0
  7 20  1  0
  8 12  1  0
  8 21  1  0
 10 11  1  0
 10 13  1  0
 11 15  1  0
 12 24  2  0
 14 15  1  0
 15 20  1  0
 16 23  1  0
 17 22  1  0
 19 20  1  0
 20 21  1  0
 22 24  1  0
M  END
>  <ID>  (1) 
conformer_0

$$$$
