
     RDKit          3D

 21 21  0  0  0  0  0  0  0  0999 V2000
   31.3274    4.2789   -7.3889 C   0  0  0  0  0  0  0  0  0  0  0  0
   31.4922    2.0412   -8.2185 O   0  0  0  0  0  0  0  0  0  0  0  0
   30.9422    3.1838   -8.3902 C   0  0  0  0  0  0  0  0  0  0  0  0
   37.3860    5.8937   -3.8214 O   0  0  0  0  0  0  0  0  0  0  0  0
   32.5230    4.0392   -3.7107 C   0  0  0  0  0  0  0  0  0  0  0  0
   39.0871    4.2444   -3.7332 C   0  0  0  0  0  0  0  0  0  0  0  0
   36.0553    4.7152   -6.1178 C   0  0  0  0  0  0  0  0  0  0  0  0
   39.5330    3.0352   -4.3055 C   0  0  0  0  0  0  0  0  0  0  0  0
   34.8505    5.4718   -5.9454 N   0  0  0  0  0  0  0  0  0  0  0  0
   36.1357    4.3597   -7.6327 C   0  0  0  0  0  0  0  0  0  0  0  0
   33.8704    4.5259   -3.9263 O   0  0  0  0  0  0  0  0  0  0  0  0
   32.7362    5.1783   -4.6440 C   0  0  0  0  0  0  0  0  0  0  0  0
   37.8359    4.7737   -4.2867 C   0  0  0  0  0  0  0  0  0  0  0  0
   30.5054    3.4242   -9.6204 O   0  0  0  0  0  0  0  0  0  0  0  0
   33.6351    5.2431   -6.8047 C   0  0  0  0  0  0  0  0  0  0  0  0
   32.3939    4.4963   -6.1533 C   0  0  0  0  0  0  0  0  0  0  0  0
   38.6847    2.3563   -5.1026 N   0  0  0  0  0  0  0  0  0  0  0  0
   37.1983    4.1185   -5.3617 C   0  0  0  0  0  0  0  0  0  0  0  0
   32.7603    3.1183   -6.0253 O   0  0  0  0  0  0  0  0  0  0  0  0
   30.8148    5.5095   -7.7412 O   0  0  0  0  0  0  0  0  0  0  0  0
   37.6276    2.8237   -5.7772 C   0  0  0  0  0  0  0  0  0  0  0  0
  1  3  1  0
  1 16  1  0
  1 20  1  0
  2  3  2  0
  3 14  1  0
  4 13  1  0
  5 11  1  0
  5 12  1  0
  6  8  2  0
  6 13  1  0
  7  9  1  0
  7 10  1  0
  7 18  1  0
  8 17  1  0
  9 15  1  0
 12 16  1  0
 13 18  2  0
 15 16  1  0
 16 19  1  0
 17 21  1  0
 18 21  1  0
M  END
>  <ID>  (1) 
conformer_0

$$$$
