
     RDKit          3D

 37 38  0  0  0  0  0  0  0  0999 V2000
   27.5397    0.0093   -1.6707 O   0  0  0  0  0  0  0  0  0  0  0  0
   29.6078    2.3619   -9.2073 C   0  0  0  0  0  0  0  0  0  0  0  0
   34.4219    5.3104   -4.6856 C   0  0  0  0  0  0  0  0  0  0  0  0
   33.9011    3.5359   -7.6080 O   0  0  0  0  0  0  0  0  0  0  0  0
   28.2724    2.6643   -9.9825 C   0  0  0  0  0  0  0  0  0  0  0  0
   33.8006    4.2377   -6.5035 C   0  0  0  0  0  0  0  0  0  0  0  0
   27.3276    2.8635   -9.0235 O   0  0  0  0  0  0  0  0  0  0  0  0
   28.8074    0.2893   -4.7435 C   0  0  0  0  0  0  0  0  0  0  0  0
   30.0603    3.7246   -8.6462 C   0  0  0  0  0  0  0  0  0  0  0  0
   39.0421    2.1170   -5.0449 C   0  0  0  0  0  0  0  0  0  0  0  0
   30.9561    1.7311   -4.5204 N   0  0  0  0  0  0  0  0  0  0  0  0
   30.6413    1.6777   -9.6785 O   0  0  0  0  0  0  0  0  0  0  0  0
   28.3363   -1.7464   -2.8415 O   0  0  0  0  0  0  0  0  0  0  0  0
   39.4756    5.1806   -3.1732 F   0  0  0  0  0  0  0  0  0  0  0  0
   29.5774    1.3767   -4.1047 C   0  0  0  0  0  0  0  0  0  0  0  0
   31.4362    4.5778   -6.8723 C   0  0  0  0  0  0  0  0  0  0  0  0
   37.2733    3.6087   -5.7051 C   0  0  0  0  0  0  0  0  0  0  0  0
   38.8796    4.2189   -3.9556 C   0  0  0  0  0  0  0  0  0  0  0  0
   28.9142    2.4515   -3.8443 O   0  0  0  0  0  0  0  0  0  0  0  0
   32.6401    3.6042   -4.5089 C   0  0  0  0  0  0  0  0  0  0  0  0
   39.5048    3.0021   -4.0593 C   0  0  0  0  0  0  0  0  0  0  0  0
   40.4847    2.6769   -3.1898 O   0  0  0  0  0  0  0  0  0  0  0  0
   31.0083    5.7101   -7.1052 O   0  0  0  0  0  0  0  0  0  0  0  0
   36.1864    4.0941   -6.5350 C   0  0  0  0  0  0  0  0  0  0  0  0
   27.8112   -0.5700   -2.7618 C   0  0  0  0  0  0  0  0  0  0  0  0
   34.1267    4.1105   -2.6496 O   0  0  0  0  0  0  0  0  0  0  0  0
   37.7050    4.4724   -4.6984 C   0  0  0  0  0  0  0  0  0  0  0  0
   31.1841    3.5565   -7.7464 N   0  0  0  0  0  0  0  0  0  0  0  0
   33.7084    4.2423   -3.8793 C   0  0  0  0  0  0  0  0  0  0  0  0
   28.5631    3.6651  -10.9445 N   0  0  0  0  0  0  0  0  0  0  0  0
   37.0085    5.5854   -4.3562 F   0  0  0  0  0  0  0  0  0  0  0  0
   35.0360    4.5666   -5.8240 N   0  0  0  0  0  0  0  0  0  0  0  0
   31.5970    2.8839   -3.8441 C   0  0  0  0  0  0  0  0  0  0  0  0
   36.4831    4.5540   -7.6860 O   0  0  0  0  0  0  0  0  0  0  0  0
   27.5075    0.0857   -4.0126 O   0  0  0  0  0  0  0  0  0  0  0  0
   37.9334    2.4226   -5.8640 C   0  0  0  0  0  0  0  0  0  0  0  0
   32.4647    4.2743   -5.8334 C   0  0  0  0  0  0  0  0  0  0  0  0
  1 25  2  0
  2  5  1  0
  2  9  1  0
  2 12  1  0
  3 29  1  0
  3 32  1  0
  4  6  2  0
  5  7  1  0
  5 30  1  0
  6 32  1  0
  6 37  1  0
  8 15  1  0
  8 35  1  0
  9 28  1  0
 10 21  2  0
 10 36  1  0
 11 15  1  0
 11 33  1  0
 13 25  1  0
 14 18  1  0
 15 19  2  0
 16 23  2  0
 16 28  1  0
 16 37  1  0
 17 24  1  0
 17 27  1  0
 17 36  2  0
 18 21  1  0
 18 27  2  0
 20 29  2  0
 20 33  1  0
 20 37  1  0
 21 22  1  0
 24 32  1  0
 24 34  2  0
 25 35  1  0
 26 29  1  0
 27 31  1  0
M  END
>  <ID>  (1) 
conformer_0

$$$$
