
     RDKit          3D

 23 24  0  0  0  0  0  0  0  0999 V2000
   34.1212    4.1384   -3.4034 O   0  0  0  0  0  0  0  0  0  0  0  0
   30.7838    2.4572   -3.8712 C   0  0  0  0  0  0  0  0  0  0  0  0
   32.6525    4.0793   -6.7596 C   0  0  0  0  0  0  0  0  0  0  0  0
   38.1676    3.2052   -5.2109 C   0  0  0  0  0  0  0  0  0  0  0  0
   30.1053    3.6371   -9.4718 O   0  0  0  0  0  0  0  0  0  0  0  0
   31.3777    4.1132   -7.5139 C   0  0  0  0  0  0  0  0  0  0  0  0
   32.1315    1.7563   -5.7546 O   0  0  0  0  0  0  0  0  0  0  0  0
   39.8400    3.9061   -3.7221 O   0  0  0  0  0  0  0  0  0  0  0  0
   36.8850    3.3990   -5.7652 N   0  0  0  0  0  0  0  0  0  0  0  0
   38.8957    2.0798   -5.5402 O   0  0  0  0  0  0  0  0  0  0  0  0
   33.8024    4.2654   -4.6285 C   0  0  0  0  0  0  0  0  0  0  0  0
   34.0987    4.4688   -6.9653 C   0  0  0  0  0  0  0  0  0  0  0  0
   36.0722    4.4621   -5.3763 C   0  0  0  0  0  0  0  0  0  0  0  0
   35.0700    4.9514   -7.8791 O   0  0  0  0  0  0  0  0  0  0  0  0
   37.9258    5.2869   -4.0149 C   0  0  0  0  0  0  0  0  0  0  0  0
   31.6954    5.2746   -4.8313 O   0  0  0  0  0  0  0  0  0  0  0  0
   32.3965    4.1012   -5.1927 C   0  0  0  0  0  0  0  0  0  0  0  0
   38.6787    4.1395   -4.3025 C   0  0  0  0  0  0  0  0  0  0  0  0
   31.0967    3.1298   -8.5147 C   0  0  0  0  0  0  0  0  0  0  0  0
   36.6514    5.4545   -4.5976 C   0  0  0  0  0  0  0  0  0  0  0  0
   31.8974    2.7368   -4.7566 C   0  0  0  0  0  0  0  0  0  0  0  0
   34.7358    4.5496   -5.6342 N   0  0  0  0  0  0  0  0  0  0  0  0
   30.9060    5.2938   -7.6606 O   0  0  0  0  0  0  0  0  0  0  0  0
  1 11  2  0
  2 21  1  0
  3  6  1  0
  3 12  1  0
  3 17  1  0
  4  9  1  0
  4 10  2  0
  4 18  1  0
  5 19  1  0
  6 19  1  0
  6 23  2  0
  7 21  1  0
  8 18  1  0
  9 13  2  0
 11 17  1  0
 11 22  1  0
 12 14  2  0
 12 22  1  0
 13 20  1  0
 13 22  1  0
 15 18  2  0
 15 20  1  0
 16 17  1  0
 17 21  1  0
M  END
>  <ID>  (1) 
conformer_0

$$$$
