
     RDKit          3D

 26 28  0  0  0  0  0  0  0  0999 V2000
   29.4569    1.9647   -4.9520 C   0  0  0  0  0  0  0  0  0  0  0  0
   39.2588    5.2641   -3.6353 C   0  0  0  0  0  0  0  0  0  0  0  0
   31.1184    1.9259   -8.7111 O   0  0  0  0  0  0  0  0  0  0  0  0
   34.2297    3.4770   -5.1648 C   0  0  0  0  0  0  0  0  0  0  0  0
   30.5415    2.7179   -5.7561 C   0  0  0  0  0  0  0  0  0  0  0  0
   36.4034    3.6824   -6.0939 O   0  0  0  0  0  0  0  0  0  0  0  0
   30.5197    2.9623   -8.2643 C   0  0  0  0  0  0  0  0  0  0  0  0
   29.9030    3.7297   -9.2780 N   0  0  0  0  0  0  0  0  0  0  0  0
   37.2157    4.2699   -5.2657 C   0  0  0  0  0  0  0  0  0  0  0  0
   29.6585    1.1389   -3.7128 C   0  0  0  0  0  0  0  0  0  0  0  0
   30.5221    0.2400   -3.6767 O   0  0  0  0  0  0  0  0  0  0  0  0
   38.2808    2.2119   -5.2802 O   0  0  0  0  0  0  0  0  0  0  0  0
   28.6999    1.2140   -2.8952 O   0  0  0  0  0  0  0  0  0  0  0  0
   33.2946    4.4794   -7.5767 C   0  0  0  0  0  0  0  0  0  0  0  0
   34.6398    4.5021   -7.3345 C   0  0  0  0  0  0  0  0  0  0  0  0
   32.4376    3.8529   -6.7242 C   0  0  0  0  0  0  0  0  0  0  0  0
   31.8350    2.6212   -4.6757 C   0  0  0  0  0  0  0  0  0  0  0  0
   30.5895    5.1007   -7.1880 O   0  0  0  0  0  0  0  0  0  0  0  0
   30.0678    3.3089  -10.5977 O   0  0  0  0  0  0  0  0  0  0  0  0
   30.9016    3.6490   -6.9766 C   0  0  0  0  0  0  0  0  0  0  0  0
   32.8753    3.3572   -5.4883 C   0  0  0  0  0  0  0  0  0  0  0  0
   38.1824    6.0647   -3.9922 C   0  0  0  0  0  0  0  0  0  0  0  0
   38.3364    3.4425   -4.8826 C   0  0  0  0  0  0  0  0  0  0  0  0
   37.1378    5.5598   -4.8065 C   0  0  0  0  0  0  0  0  0  0  0  0
   35.1004    3.9248   -6.1387 C   0  0  0  0  0  0  0  0  0  0  0  0
   39.3464    3.9399   -4.0465 C   0  0  0  0  0  0  0  0  0  0  0  0
  1  5  2  3
  1 10  1  0
  2 22  2  0
  2 26  1  0
  3  7  2  0
  4 21  2  0
  4 25  1  0
  5 17  1  0
  5 20  1  0
  6  9  1  0
  6 25  1  0
  7  8  1  0
  7 20  1  0
  8 19  1  0
  9 23  1  0
  9 24  2  0
 10 11  2  0
 10 13  1  0
 12 23  1  0
 14 15  1  0
 14 16  2  0
 15 25  2  0
 16 20  1  0
 16 21  1  0
 17 21  1  0
 18 20  1  0
 22 24  1  0
 23 26  2  0
M  END
>  <ID>  (1) 
conformer_0

$$$$
