
     RDKit          3D

 34 34  0  0  0  0  0  0  0  0999 V2000
   35.6555    4.2217   -3.5127 O   0  0  0  0  0  0  0  0  0  0  0  0
   38.3155    1.6350   -5.9977 O   0  0  0  0  0  0  0  0  0  0  0  0
   37.8871    3.6902   -4.6320 C   0  0  0  0  0  0  0  0  0  0  0  0
   31.8072    3.5581   -5.9635 C   0  0  0  0  0  0  0  0  0  0  0  0
   30.5332    3.3903   -5.2056 N   0  0  0  0  0  0  0  0  0  0  0  0
   36.9540    4.5454   -5.4376 C   0  0  0  0  0  0  0  0  0  0  0  0
   29.3274    1.4816   -4.0111 C   0  0  0  0  0  0  0  0  0  0  0  0
   37.1695    3.9392   -7.8020 C   0  0  0  0  0  0  0  0  0  0  0  0
   31.2147    3.6952   -7.5075 C   0  0  0  0  0  0  0  0  0  0  0  0
   30.8844    1.8831   -9.4496 O   0  0  0  0  0  0  0  0  0  0  0  0
   29.1773    3.5795  -10.5373 O   0  0  0  0  0  0  0  0  0  0  0  0
   35.8333    6.0848   -7.1830 F   0  0  0  0  0  0  0  0  0  0  0  0
   37.5846    2.9580   -8.6865 O   0  0  0  0  0  0  0  0  0  0  0  0
   33.9702    4.9146   -7.8596 O   0  0  0  0  0  0  0  0  0  0  0  0
   39.9009    3.6815   -3.0466 C   0  0  0  0  0  0  0  0  0  0  0  0
   34.4270    4.8564   -5.4887 C   0  0  0  0  0  0  0  0  0  0  0  0
   34.7461    5.2507   -6.8015 C   0  0  0  0  0  0  0  0  0  0  0  0
   38.9497    5.8205   -3.8334 C   0  0  0  0  0  0  0  0  0  0  0  0
   36.7910    5.1998   -8.2608 F   0  0  0  0  0  0  0  0  0  0  0  0
   30.3066    2.5386   -4.1261 C   0  0  0  0  0  0  0  0  0  0  0  0
   32.6013    4.8446   -5.6926 C   0  0  0  0  0  0  0  0  0  0  0  0
   30.5998    2.9169   -8.6772 C   0  0  0  0  0  0  0  0  0  0  0  0
   28.1498    1.6394   -3.7823 O   0  0  0  0  0  0  0  0  0  0  0  0
   29.8769    0.1380   -3.9646 C   0  0  0  0  0  0  0  0  0  0  0  0
   32.6468    2.4200   -5.6852 O   0  0  0  0  0  0  0  0  0  0  0  0
   40.1571    2.4210   -3.5055 O   0  0  0  0  0  0  0  0  0  0  0  0
   38.2674    2.9592   -5.7815 C   0  0  0  0  0  0  0  0  0  0  0  0
   35.8578    2.6287   -6.3770 F   0  0  0  0  0  0  0  0  0  0  0  0
   33.3469    5.0769   -4.5491 C   0  0  0  0  0  0  0  0  0  0  0  0
   38.7381    4.3022   -3.6642 C   0  0  0  0  0  0  0  0  0  0  0  0
   29.2314    3.4164   -9.1792 C   0  0  0  0  0  0  0  0  0  0  0  0
   30.6985    5.0697   -7.5634 O   0  0  0  0  0  0  0  0  0  0  0  0
   36.8743    3.5418   -6.4323 C   0  0  0  0  0  0  0  0  0  0  0  0
   35.7279    4.7034   -4.7145 C   0  0  0  0  0  0  0  0  0  0  0  0
  1 34  1  0
  2 27  1  0
  3  6  1  0
  3 27  1  0
  3 30  1  0
  4  5  1  0
  4  9  1  0
  4 21  1  0
  4 25  1  0
  5 20  1  0
  6 33  1  0
  6 34  1  0
  7 20  1  0
  7 23  2  0
  7 24  1  0
  8 13  1  0
  8 19  1  0
  8 33  1  0
  9 22  1  0
  9 32  1  0
 10 22  1  0
 11 31  1  0
 12 17  1  0
 14 17  1  0
 15 26  1  0
 15 30  1  0
 16 17  1  0
 16 29  1  0
 16 34  1  0
 18 30  1  0
 21 29  1  0
 22 31  1  0
 27 33  1  0
 28 33  1  0
M  END
>  <ID>  (1) 
conformer_0

$$$$
