
     RDKit          3D

 34 35  0  0  0  0  0  0  0  0999 V2000
   31.8800    3.5623   -4.1508 C   0  0  0  0  0  0  0  0  0  0  0  0
   38.8706    2.6177   -5.0086 C   0  0  0  0  0  0  0  0  0  0  0  0
   31.9273    2.1073   -8.1366 O   0  0  0  0  0  0  0  0  0  0  0  0
   33.7463    4.2751   -2.8537 O   0  0  0  0  0  0  0  0  0  0  0  0
   34.8916    4.1710   -5.6241 C   0  0  0  0  0  0  0  0  0  0  0  0
   27.6612    0.7368   -2.8587 O   0  0  0  0  0  0  0  0  0  0  0  0
   30.8076    2.8045   -8.6197 C   0  0  0  0  0  0  0  0  0  0  0  0
   31.0157    4.1482   -6.4687 C   0  0  0  0  0  0  0  0  0  0  0  0
   37.3307    3.3306   -6.6182 N   0  0  0  0  0  0  0  0  0  0  0  0
   39.6594    4.1233   -3.3063 C   0  0  0  0  0  0  0  0  0  0  0  0
   29.6254    0.3597   -1.8499 O   0  0  0  0  0  0  0  0  0  0  0  0
   39.6830    2.8529   -3.9297 C   0  0  0  0  0  0  0  0  0  0  0  0
   35.3654    4.4999   -6.9023 C   0  0  0  0  0  0  0  0  0  0  0  0
   30.2372    3.8474   -7.7110 C   0  0  0  0  0  0  0  0  0  0  0  0
   35.3424    3.2763   -4.8892 N   0  0  0  0  0  0  0  0  0  0  0  0
   29.5045    0.1831   -4.1742 C   0  0  0  0  0  0  0  0  0  0  0  0
   28.8306    0.3522   -2.8320 C   0  0  0  0  0  0  0  0  0  0  0  0
   38.8065    5.0708   -3.8137 C   0  0  0  0  0  0  0  0  0  0  0  0
   30.5549    1.4895   -3.9207 O   0  0  0  0  0  0  0  0  0  0  0  0
   30.1724    5.0247   -8.4518 O   0  0  0  0  0  0  0  0  0  0  0  0
   31.8063    5.3084   -6.5775 C   0  0  0  0  0  0  0  0  0  0  0  0
   37.9789    3.5985   -5.4442 C   0  0  0  0  0  0  0  0  0  0  0  0
   29.0809    2.1544   -5.5860 O   0  0  0  0  0  0  0  0  0  0  0  0
   33.1234    4.1468   -4.0152 C   0  0  0  0  0  0  0  0  0  0  0  0
   30.8914    0.2310   -4.2546 C   0  0  0  0  0  0  0  0  0  0  0  0
   38.1970    6.1034   -3.9639 C   0  0  0  0  0  0  0  0  0  0  0  0
   38.0315    4.8488   -4.7345 C   0  0  0  0  0  0  0  0  0  0  0  0
   30.1243    2.3604   -4.9172 C   0  0  0  0  0  0  0  0  0  0  0  0
   29.7873    2.3814   -9.5880 C   0  0  0  0  0  0  0  0  0  0  0  0
   29.4108    3.5056  -10.4317 O   0  0  0  0  0  0  0  0  0  0  0  0
   36.5255    4.0222   -7.3434 C   0  0  0  0  0  0  0  0  0  0  0  0
   31.0671    3.4378   -5.2257 C   0  0  0  0  0  0  0  0  0  0  0  0
   32.9525    5.6113   -5.9646 C   0  0  0  0  0  0  0  0  0  0  0  0
   33.6611    4.7247   -5.2206 N   0  0  0  0  0  0  0  0  0  0  0  0
  1 24  1  0
  1 32  1  0
  2 12  2  0
  2 22  1  0
  3  7  1  0
  4 24  2  0
  5 13  1  0
  5 15  2  0
  5 34  1  0
  6 17  2  0
  7 14  1  0
  7 29  1  0
  8 14  1  0
  8 21  1  0
  8 32  2  0
  9 22  1  0
  9 31  1  0
 10 12  1  0
 10 18  1  0
 11 17  1  0
 13 31  2  3
 14 20  1  0
 16 17  1  0
 16 25  1  0
 18 26  2  0
 18 27  1  0
 19 25  1  0
 19 28  1  0
 21 33  2  0
 22 27  2  0
 23 28  2  0
 24 34  1  0
 28 32  1  0
 29 30  1  0
 33 34  1  0
M  END
>  <ID>  (1) 
conformer_0

$$$$
