
     RDKit          3D

 31 33  0  0  0  0  0  0  0  0999 V2000
   38.8865    2.0756   -5.3472 O   0  0  0  0  0  0  0  0  0  0  0  0
   33.1927    5.1609   -6.7055 C   0  0  0  0  0  0  0  0  0  0  0  0
   37.9967    5.8736   -3.5003 C   0  0  0  0  0  0  0  0  0  0  0  0
   33.7644    4.6106   -4.0753 C   0  0  0  0  0  0  0  0  0  0  0  0
   36.3878    4.6869   -4.9373 C   0  0  0  0  0  0  0  0  0  0  0  0
   31.9561    4.7566   -6.0394 C   0  0  0  0  0  0  0  0  0  0  0  0
   39.3835    3.9661   -4.0757 C   0  0  0  0  0  0  0  0  0  0  0  0
   29.5889    2.4935   -8.2592 N   0  0  0  0  0  0  0  0  0  0  0  0
   38.5512    3.2846   -4.9768 C   0  0  0  0  0  0  0  0  0  0  0  0
   37.1565    3.1878   -6.7689 N   0  0  0  0  0  0  0  0  0  0  0  0
   27.6959    1.1475   -3.6931 O   0  0  0  0  0  1  0  0  0  0  0  0
   31.1577    3.6177   -6.5915 C   0  0  0  0  0  0  0  0  0  0  0  0
   31.2195    5.9377   -6.3935 O   0  0  0  0  0  0  0  0  0  0  0  0
   36.7955    5.6792   -4.0373 C   0  0  0  0  0  0  0  0  0  0  0  0
   35.1464    4.1403   -7.3913 N   0  0  0  0  0  0  0  0  0  0  0  0
   29.8796    2.2691   -3.2465 O   0  0  0  0  0  0  0  0  0  0  0  0
   39.1038    5.1416   -3.4966 C   0  0  0  0  0  0  0  0  0  0  0  0
   34.4713    4.6550   -6.3787 C   0  0  0  0  0  0  0  0  0  0  0  0
   36.2440    3.6043   -7.4399 C   0  0  0  0  0  0  0  0  0  0  0  0
   29.8290   -0.1457   -4.0094 O   0  0  0  0  0  0  0  0  0  0  0  0
   30.8868    2.3003   -5.9079 C   0  0  0  0  0  0  0  0  0  0  0  0
   28.8937    1.1540  -10.0717 O   0  0  0  0  0  0  0  0  0  0  0  0
   30.7642    3.4025   -8.0479 C   0  0  0  0  0  0  0  0  0  0  0  0
   28.8311    3.6368  -11.5384 O   0  0  0  0  0  0  0  0  0  0  0  0
   29.6962    3.2560  -10.5373 C   0  0  0  0  0  0  0  0  0  0  0  0
   29.1067    2.3361   -9.5761 C   0  0  0  0  0  0  0  0  0  0  0  0
   29.3927    1.7832   -5.7412 C   0  0  0  0  0  0  0  0  0  0  0  0
   37.3055    3.8197   -5.5218 C   0  0  0  0  0  0  0  0  0  0  0  0
   32.2770    4.5951   -4.5400 C   0  0  0  0  0  0  0  0  0  0  0  0
   35.0067    4.6560   -5.0912 N   0  0  0  0  0  0  0  0  0  0  0  0
   29.1646    1.2352   -4.1007 P   0  0  0  0  0  4  0  0  0  0  0  0
  1  9  1  0
  2  6  1  0
  2 18  1  0
  3 14  1  0
  3 17  2  0
  4 29  2  0
  4 30  1  0
  5 14  2  0
  5 28  1  0
  5 30  1  0
  6 12  1  0
  6 13  1  0
  6 29  1  0
  7  9  2  0
  7 17  1  0
  8 23  1  0
  8 26  1  0
  9 28  1  0
 10 19  1  0
 10 28  1  0
 11 31  2  0
 12 21  1  0
 12 23  1  0
 15 18  1  0
 15 19  2  0
 16 31  1  0
 18 30  1  0
 20 31  1  0
 21 27  1  0
 22 26  2  0
 24 25  1  0
 25 26  1  0
 27 31  1  0
M  END
>  <ID>  (1) 
conformer_0

$$$$
