
     RDKit          3D

 30 32  0  0  0  0  0  0  0  0999 V2000
   38.2635    2.0731   -5.6857 F   0  0  0  0  0  0  0  0  0  0  0  0
   33.9470    4.7189   -3.1664 C   0  0  0  0  0  0  0  0  0  0  0  0
   33.1455    4.6465   -7.6142 C   0  0  0  0  0  0  0  0  0  0  0  0
   32.5243    4.1712   -5.1145 C   0  0  0  0  0  0  0  0  0  0  0  0
   36.6369    5.3859   -5.7482 C   0  0  0  0  0  0  0  0  0  0  0  0
   38.8585    5.1873   -3.7700 C   0  0  0  0  0  0  0  0  0  0  0  0
   33.4297    5.0281   -4.4644 C   0  0  0  0  0  0  0  0  0  0  0  0
   38.9614    3.8843   -4.2541 C   0  0  0  0  0  0  0  0  0  0  0  0
   38.0648    3.4003   -5.2759 C   0  0  0  0  0  0  0  0  0  0  0  0
   36.3237    3.4017   -6.8981 N   0  0  0  0  0  0  0  0  0  0  0  0
   38.0061    6.1779   -4.0388 C   0  0  0  0  0  0  0  0  0  0  0  0
   36.9477    6.3511   -4.9245 C   0  0  0  0  0  0  0  0  0  0  0  0
   28.0751    1.5960   -6.7832 O   0  0  0  0  0  0  0  0  0  0  0  0
   32.0466    3.0146   -4.4604 C   0  0  0  0  0  0  0  0  0  0  0  0
   29.5362    2.6162   -8.7489 C   0  0  0  0  0  0  0  0  0  0  0  0
   35.4366    4.0222   -7.4852 C   0  0  0  0  0  0  0  0  0  0  0  0
   29.2224    1.9275   -7.3992 C   0  0  0  0  0  0  0  0  0  0  0  0
   37.0479    4.1100   -5.9293 C   0  0  0  0  0  0  0  0  0  0  0  0
   29.7032    2.8858  -10.3140 O   0  0  0  0  0  0  0  0  0  0  0  0
   30.3660    4.8742   -8.7749 O   0  0  0  0  0  0  0  0  0  0  0  0
   31.9563    4.5733   -6.5921 S   0  0  0  0  0  3  0  0  0  0  0  0
   30.9306    2.0312   -4.9135 C   0  0  0  0  0  0  0  0  0  0  0  0
   34.5301    5.0290   -7.3119 C   0  0  0  0  0  0  0  0  0  0  0  0
   30.1938    2.3782   -6.2784 C   0  0  0  0  0  0  0  0  0  0  0  0
   30.6559    3.6469   -8.3021 C   0  0  0  0  0  0  0  0  0  0  0  0
   39.8716    3.0773   -3.7762 O   0  0  0  0  0  0  0  0  0  0  0  0
   32.6164    2.6857   -3.1414 C   0  0  0  0  0  0  0  0  0  0  0  0
   33.4649    3.5003   -2.5093 C   0  0  0  0  0  0  0  0  0  0  0  0
   30.9656    3.4608   -6.9448 C   0  0  0  0  0  0  0  0  0  0  0  0
   31.3879    5.8751   -6.4141 O   0  0  0  0  0  1  0  0  0  0  0  0
  1  9  1  0
  2  7  1  0
  2 28  1  0
  3 21  1  0
  3 23  1  0
  4  7  2  0
  4 14  1  0
  5 12  2  0
  5 18  1  0
  6  8  2  0
  6 11  1  0
  8  9  1  0
  8 26  1  0
  9 18  1  0
 10 16  1  0
 10 18  2  3
 11 12  1  0
 13 17  1  0
 14 22  2  3
 14 27  1  0
 15 17  1  0
 15 19  1  0
 15 25  1  0
 16 23  1  0
 17 24  1  0
 20 25  1  0
 21 29  1  0
 21 30  2  0
 22 24  1  0
 24 29  1  0
 25 29  1  0
 27 28  2  0
M  END
>  <ID>  (1) 
conformer_0

$$$$
