
     RDKit          3D

 23 23  0  0  0  0  0  0  0  0999 V2000
   29.9194    3.8544   -9.5063 O   0  0  0  0  0  0  0  0  0  0  0  0
   34.4213    5.5694   -6.1633 C   0  0  0  0  0  0  0  0  0  0  0  0
   29.8319    2.6751   -4.2175 O   0  0  0  0  0  0  0  0  0  0  0  0
   32.9418    4.3075   -7.9413 O   0  0  0  0  0  0  0  0  0  0  0  0
   32.2735    4.8439   -5.3880 C   0  0  0  0  0  0  0  0  0  0  0  0
   31.8060    3.9697   -4.1907 C   0  0  0  0  0  0  0  0  0  0  0  0
   36.7750    5.5811   -4.7252 C   0  0  0  0  0  0  0  0  0  0  0  0
   36.8302    2.6387   -6.8632 N   0  0  0  0  0  0  0  0  0  0  0  0
   38.3475    2.8725   -5.2118 N   0  0  0  0  0  0  0  0  0  0  0  0
   32.1356    4.3871   -6.8136 C   0  0  0  0  0  0  0  0  0  0  0  0
   38.6900    4.7618   -3.7128 C   0  0  0  0  0  0  0  0  0  0  0  0
   31.0440    2.6839   -4.4828 C   0  0  0  0  0  0  0  0  0  0  0  0
   30.9062    2.0523   -8.8232 O   0  0  0  0  0  0  0  0  0  0  0  0
   35.3327    4.5196   -6.4239 C   0  0  0  0  0  0  0  0  0  0  0  0
   36.5292    4.5326   -5.5542 C   0  0  0  0  0  0  0  0  0  0  0  0
   31.6761    1.6798   -4.8147 O   0  0  0  0  0  0  0  0  0  0  0  0
   37.7932    5.7044   -3.8288 N   0  0  0  0  0  0  0  0  0  0  0  0
   40.0758    2.9606   -3.6771 N   0  0  0  0  0  0  0  0  0  0  0  0
   30.7766    3.6817   -7.1308 C   0  0  0  0  0  0  0  0  0  0  0  0
   39.0489    3.5297   -4.2182 C   0  0  0  0  0  0  0  0  0  0  0  0
   30.5737    3.2550   -8.5628 C   0  0  0  0  0  0  0  0  0  0  0  0
   37.2911    3.3487   -5.8341 C   0  0  0  0  0  0  0  0  0  0  0  0
   33.6329    5.2764   -5.0154 O   0  0  0  0  0  0  0  0  0  0  0  0
  1 21  2  0
  2 14  1  0
  2 23  1  0
  3 12  2  0
  4 10  1  0
  5  6  1  0
  5 10  1  0
  5 23  1  0
  6 12  1  0
  7 15  2  0
  7 17  1  0
  8 22  2  0
  9 20  1  0
  9 22  1  0
 10 19  2  3
 11 17  2  0
 11 20  1  0
 12 16  1  0
 13 21  1  0
 14 15  1  0
 15 22  1  0
 18 20  2  0
 19 21  1  0
M  END
>  <ID>  (1) 
conformer_0

$$$$
