
     RDKit          3D

 25 27  0  0  0  0  0  0  0  0999 V2000
   37.2612    2.8873   -6.0542 C   0  0  0  0  0  0  0  0  0  0  0  0
   33.0732    4.1136   -4.4002 O   0  0  0  0  0  0  0  0  0  0  0  0
   35.5041    4.6598   -5.1401 N   0  0  0  0  0  0  0  0  0  0  0  0
   37.7366    3.8187   -5.1017 C   0  0  0  0  0  0  0  0  0  0  0  0
   31.3718    4.3936   -6.3581 C   0  0  0  0  0  0  0  0  0  0  0  0
   39.6304    2.7393   -4.3548 O   0  0  0  0  0  0  0  0  0  0  0  0
   34.3719    4.8680   -4.2253 C   0  0  0  0  0  0  0  0  0  0  0  0
   30.6470    1.8450   -4.4550 O   0  0  0  0  0  0  0  0  0  0  0  0
   35.2062    3.9111   -6.2048 C   0  0  0  0  0  0  0  0  0  0  0  0
   29.5133   -0.2284   -4.0103 O   0  0  0  0  0  1  0  0  0  0  0  0
   32.2972    3.9304   -7.4585 C   0  0  0  0  0  0  0  0  0  0  0  0
   38.4976    6.0480   -3.7344 C   0  0  0  0  0  0  0  0  0  0  0  0
   29.4175    1.1209   -4.0104 P   0  0  0  0  0  0  0  0  0  0  0  0
   33.5294    5.5776   -6.4998 O   0  0  0  0  0  0  0  0  0  0  0  0
   37.2640    6.0257   -4.2974 N   0  0  0  0  0  0  0  0  0  0  0  0
   33.7092    4.1397   -6.7503 C   0  0  0  0  0  0  0  0  0  0  0  0
   30.8014    3.2032   -4.1942 C   0  0  0  0  0  0  0  0  0  0  0  0
   39.3152    4.9720   -3.7028 C   0  0  0  0  0  0  0  0  0  0  0  0
   38.9568    3.7832   -4.3751 C   0  0  0  0  0  0  0  0  0  0  0  0
   36.1144    3.0252   -6.6692 N   0  0  0  0  0  0  0  0  0  0  0  0
   28.3271    1.7682   -3.6491 O   0  0  0  0  0  1  0  0  0  0  0  0
   36.8426    4.8739   -4.8485 C   0  0  0  0  0  0  0  0  0  0  0  0
   31.8261    3.8961   -5.0498 C   0  0  0  0  0  0  0  0  0  0  0  0
   31.2961    3.3190   -8.4655 O   0  0  0  0  0  0  0  0  0  0  0  0
   30.3301    4.2950   -8.7591 O   0  0  0  0  0  0  0  0  0  0  0  0
  1  4  1  0
  1 20  2  0
  2  7  1  0
  2 23  1  0
  3  7  1  0
  3  9  1  0
  3 22  1  0
  4 19  1  0
  4 22  1  0
  5 11  1  0
  5 23  1  0
  6 19  2  0
  8 13  1  0
  8 17  1  0
  9 16  1  0
  9 20  1  0
 10 13  1  0
 11 16  1  0
 11 24  1  0
 12 15  1  0
 12 18  2  0
 13 21  1  0
 14 16  1  0
 15 22  2  0
 17 23  1  0
 18 19  1  0
 24 25  1  0
M  END
>  <ID>  (1) 
conformer_0

$$$$
