
     RDKit          3D

 35 36  0  0  0  0  0  0  0  0999 V2000
   28.5213   -0.4130   -4.3449 O   0  0  0  0  0  1  0  0  0  0  0  0
   30.0422    2.6496   -4.4638 C   0  0  0  0  0  0  0  0  0  0  0  0
   30.9338    3.6186   -8.4370 N   0  0  0  0  0  0  0  0  0  0  0  0
   29.8641    1.5762   -3.4583 C   0  0  0  0  0  0  0  0  0  0  0  0
   36.5725    4.3300   -8.6687 F   0  0  0  0  0  0  0  0  0  0  0  0
   30.4903    1.7154   -9.9483 O   0  0  0  0  0  0  0  0  0  0  0  0
   36.1934    4.3331   -7.2721 C   0  0  0  0  0  0  0  0  0  0  0  0
   29.7919    2.8214   -9.2714 S   0  0  0  0  0  4  0  0  0  0  0  0
   31.4702    5.7265   -6.9785 O   0  0  0  0  0  0  0  0  0  0  0  0
   38.4464    6.2108   -3.7050 C   0  0  0  0  0  0  0  0  0  0  0  0
   36.9134    4.6410   -4.6889 C   0  0  0  0  0  0  0  0  0  0  0  0
   28.6548    2.2868   -8.4296 O   0  0  0  0  0  0  0  0  0  0  0  0
   37.9844    2.8005   -5.9211 N   0  0  0  0  0  0  0  0  0  0  0  0
   28.2906    0.1329   -1.9631 O   0  0  0  0  0  0  0  0  0  0  0  0
   27.1351    1.4327   -3.6423 O   0  0  0  0  0  0  0  0  0  0  0  0
   35.4573    2.7728   -4.6723 O   0  0  0  0  0  0  0  0  0  0  0  0
   33.5919    4.6092   -6.7273 C   0  0  0  0  0  0  0  0  0  0  0  0
   31.2617    3.3756   -7.0372 C   0  0  0  0  0  0  0  0  0  0  0  0
   39.4925    5.3040   -3.7409 C   0  0  0  0  0  0  0  0  0  0  0  0
   37.1699    5.8701   -4.1888 C   0  0  0  0  0  0  0  0  0  0  0  0
   31.8837    4.5472   -4.9091 C   0  0  0  0  0  0  0  0  0  0  0  0
   34.3996    4.7948   -4.1353 O   0  0  0  0  0  0  0  0  0  0  0  0
   34.5987    4.3367   -2.7167 O   0  0  0  0  0  0  0  0  0  0  0  0
   39.3103    4.0693   -4.3589 C   0  0  0  0  0  0  0  0  0  0  0  0
   35.5136    4.0981   -4.9546 C   0  0  0  0  0  0  0  0  0  0  0  0
   32.0325    4.5524   -6.4276 C   0  0  0  0  0  0  0  0  0  0  0  0
   33.7347    4.9382   -8.1029 O   0  0  0  0  0  0  0  0  0  0  0  0
   37.0874    3.1421   -6.9805 C   0  0  0  0  0  0  0  0  0  0  0  0
   29.1555    3.6532  -10.4134 O   0  0  0  0  0  0  0  0  0  0  0  0
   38.0526    3.8279   -4.9227 C   0  0  0  0  0  0  0  0  0  0  0  0
   34.9745    4.2838   -6.3272 C   0  0  0  0  0  0  0  0  0  0  0  0
   28.3881    0.6806   -3.3570 P   0  0  0  0  0  4  0  0  0  0  0  0
   33.1422    4.0414   -4.2471 C   0  0  0  0  0  0  0  0  0  0  0  0
   30.4325    2.6253   -5.9975 C   0  0  0  0  0  0  0  0  0  0  0  0
   36.4976    5.7693   -7.1414 F   0  0  0  0  0  0  0  0  0  0  0  0
  1 32  2  0
  2  4  1  0
  2 34  1  0
  3  8  1  0
  3 18  1  0
  4 32  1  0
  5  7  1  0
  6  8  1  0
  7 28  1  0
  7 31  1  0
  7 35  1  0
  8 12  1  0
  8 29  1  0
  9 26  1  0
 10 19  2  0
 10 20  1  0
 11 20  2  0
 11 25  1  0
 11 30  1  0
 13 28  1  0
 13 30  1  0
 14 32  1  0
 15 32  1  0
 16 25  1  0
 17 26  1  0
 17 27  1  0
 17 31  1  0
 18 26  1  0
 18 34  1  0
 19 24  1  0
 21 26  1  0
 21 33  1  0
 22 23  1  0
 22 33  1  0
 24 30  1  0
 25 31  1  0
M  END
>  <ID>  (1) 
conformer_0

$$$$
