
     RDKit          3D

 31 33  0  0  0  0  0  0  0  0999 V2000
   28.8351   -0.1660   -3.4662 O   0  0  0  0  0  1  0  0  0  0  0  0
   34.4797    4.6987   -5.8318 C   0  0  0  0  0  0  0  0  0  0  0  0
   30.0110    1.3303   -5.3960 C   0  0  0  0  0  0  0  0  0  0  0  0
   33.4597    4.5948   -3.3085 C   0  0  0  0  0  0  0  0  0  0  0  0
   28.8543    3.4596  -11.0654 O   0  0  0  0  0  1  0  0  0  0  0  0
   29.9667    2.3540   -6.4062 C   0  0  0  0  0  0  0  0  0  0  0  0
   34.8218    4.7012   -3.4832 C   0  0  0  0  0  0  0  0  0  0  0  0
   36.7903    4.7406   -4.9092 C   0  0  0  0  0  0  0  0  0  0  0  0
   38.8823    2.8899   -4.9739 C   0  0  0  0  0  0  0  0  0  0  0  0
   30.5718    2.9466   -7.6191 C   0  0  0  0  0  0  0  0  0  0  0  0
   37.1281    3.9591   -6.1080 C   0  0  0  0  0  0  0  0  0  0  0  0
   27.9917    2.0358   -9.0609 O   0  0  0  0  0  0  0  0  0  0  0  0
   32.5923    4.5816   -4.4115 C   0  0  0  0  0  0  0  0  0  0  0  0
   31.2416    0.8719   -4.8874 O   0  0  0  0  0  0  0  0  0  0  0  0
   33.0993    4.6434   -5.6790 C   0  0  0  0  0  0  0  0  0  0  0  0
   32.2490    4.5696   -6.8929 C   0  0  0  0  0  0  0  0  0  0  0  0
   36.2840    4.0211   -7.2620 C   0  0  0  0  0  0  0  0  0  0  0  0
   37.6394    4.7187   -3.7433 C   0  0  0  0  0  0  0  0  0  0  0  0
   30.1223    3.7654   -8.8229 O   0  0  0  0  0  0  0  0  0  0  0  0
   37.8138    2.7931   -5.8860 N   0  0  0  0  0  0  0  0  0  0  0  0
   30.2810    1.6075  -10.1609 O   0  0  0  0  0  0  0  0  0  0  0  0
   35.0767    4.6232   -7.1620 C   0  0  0  0  0  0  0  0  0  0  0  0
   32.0626    3.2304   -7.4564 C   0  0  0  0  0  0  0  0  0  0  0  0
   27.3908    0.8545   -5.2261 O   0  0  0  0  0  0  0  0  0  0  0  0
   31.5966    5.6461   -7.3424 O   0  0  0  0  0  0  0  0  0  0  0  0
   38.9695    4.1399   -4.1742 C   0  0  0  0  0  0  0  0  0  0  0  0
   28.6365    1.0902   -4.3238 P   0  0  0  0  0  4  0  0  0  0  0  0
   29.2643    2.6801   -9.7669 P   0  0  0  0  0  4  0  0  0  0  0  0
   37.4247    5.9505   -4.6022 C   0  0  0  0  0  0  0  0  0  0  0  0
   35.3478    4.7516   -4.7335 C   0  0  0  0  0  0  0  0  0  0  0  0
   28.5920    2.3443   -3.5095 O   0  0  0  0  0  0  0  0  0  0  0  0
  1 27  2  0
  2 15  1  0
  2 22  1  0
  2 30  1  0
  3  6  1  0
  3 14  1  0
  3 27  1  0
  4  7  1  0
  4 13  1  0
  5 28  2  0
  6 10  1  0
  7 30  2  0
  8 11  1  0
  8 18  1  0
  8 29  1  0
  8 30  1  0
  9 20  2  0
  9 26  1  0
 10 19  1  0
 10 23  1  0
 11 17  1  0
 11 20  1  0
 12 28  1  0
 13 15  2  0
 15 16  1  0
 16 23  1  0
 16 25  1  0
 17 22  1  0
 18 26  1  0
 19 28  1  0
 21 28  1  0
 24 27  1  0
 27 31  1  0
M  END
>  <ID>  (1) 
conformer_0

$$$$
