
     RDKit          3D

 36 38  0  0  0  0  0  0  0  0999 V2000
   31.8463    3.4027   -3.6587 C   0  0  0  0  0  0  0  0  0  0  0  0
   36.0152    5.0150   -4.9390 C   0  0  0  0  0  0  0  0  0  0  0  0
   37.1122    2.8315   -7.5960 O   0  0  0  0  0  0  0  0  0  0  0  0
   34.7020    5.3394   -4.6973 O   0  0  0  0  0  0  0  0  0  0  0  0
   30.3181    4.5648   -8.8179 O   0  0  0  0  0  0  0  0  0  0  0  0
   33.5343    4.5002   -5.0050 C   0  0  0  0  0  0  0  0  0  0  0  0
   26.4241    0.0639   -2.4640 O   0  0  0  0  0  0  0  0  0  0  0  0
   31.0543    3.0532   -4.7351 C   0  0  0  0  0  0  0  0  0  0  0  0
   29.8241    2.4702   -9.7858 C   0  0  0  0  0  0  0  0  0  0  0  0
   33.0083    4.1184   -3.7534 C   0  0  0  0  0  0  0  0  0  0  0  0
   37.1931    3.3467   -6.3396 C   0  0  0  0  0  0  0  0  0  0  0  0
   38.3394    4.7961   -4.0049 C   0  0  0  0  0  0  0  0  0  0  0  0
   30.7630    3.2170   -8.8064 C   0  0  0  0  0  0  0  0  0  0  0  0
   34.2288    4.8729   -7.8190 C   0  0  0  0  0  0  0  0  0  0  0  0
   26.2977   -0.1521   -3.7773 P   0  0  0  0  0  4  0  0  0  0  0  0
   29.8207    2.4288   -4.5035 O   0  0  0  0  0  0  0  0  0  0  0  0
   31.0597    0.3897   -4.2982 S   0  0  0  0  0  0  0  0  0  0  0  0
   31.5206    3.3310   -6.0393 C   0  0  0  0  0  0  0  0  0  0  0  0
   32.9817    4.4297   -7.6534 N   0  0  0  0  0  0  0  0  0  0  0  0
   32.7240    4.0911   -6.2166 C   0  0  0  0  0  0  0  0  0  0  0  0
   28.7470    0.0919   -3.9256 C   0  0  0  0  0  0  0  0  0  0  0  0
   35.2577    4.4257   -7.1068 O   0  0  0  0  0  0  0  0  0  0  0  0
   37.1022    5.3531   -4.1343 C   0  0  0  0  0  0  0  0  0  0  0  0
   40.4692    1.9193   -3.5457 O   0  0  0  0  0  0  0  0  0  0  0  0
   38.7517    1.6440   -5.8295 O   0  0  0  0  0  0  0  0  0  0  0  0
   38.2451    2.8643   -5.5268 C   0  0  0  0  0  0  0  0  0  0  0  0
   36.1756    4.2342   -6.1000 C   0  0  0  0  0  0  0  0  0  0  0  0
   27.4897    0.4111   -4.6977 C   0  0  0  0  0  0  0  0  0  0  0  0
   30.7656    2.8932   -7.2801 C   0  0  0  0  0  0  0  0  0  0  0  0
   29.5659    2.1705   -7.0667 O   0  0  0  0  0  0  0  0  0  0  0  0
   39.9218    3.0371   -3.6013 C   0  0  0  0  0  0  0  0  0  0  0  0
   25.3819   -0.8791   -4.3796 O   0  0  0  0  0  1  0  0  0  0  0  0
   39.2968    5.6235   -3.3068 C   0  0  0  0  0  0  0  0  0  0  0  0
   38.8489    3.5594   -4.3934 C   0  0  0  0  0  0  0  0  0  0  0  0
   29.3362    3.2892  -10.8594 O   0  0  0  0  0  0  0  0  0  0  0  0
   29.7584    1.1732   -3.8398 C   0  0  0  0  0  0  0  0  0  0  0  0
  1  8  2  0
  1 10  1  0
  2  4  1  0
  2 23  1  0
  2 27  1  0
  3 11  1  0
  4  6  1  0
  5 13  1  0
  6 10  2  0
  6 20  1  0
  7 15  1  0
  8 16  1  0
  8 18  1  0
  9 13  1  0
  9 35  1  0
 11 26  1  0
 11 27  2  0
 12 23  1  0
 12 33  1  0
 12 34  1  0
 13 29  1  0
 14 19  1  0
 14 22  1  0
 15 28  1  0
 15 32  2  0
 16 36  1  0
 17 36  1  0
 18 20  2  0
 18 29  1  0
 19 20  1  0
 21 28  1  0
 21 36  1  0
 22 27  1  0
 24 31  2  0
 25 26  1  0
 26 34  2  0
 29 30  1  0
 31 34  1  0
M  END
>  <ID>  (1) 
conformer_0

$$$$
