
     RDKit          3D

 27 28  0  0  0  0  0  0  0  0999 V2000
   38.0170    5.1755   -3.7019 C   0  0  0  0  0  0  0  0  0  0  0  0
   36.7265    2.8917   -7.4977 F   0  0  0  0  0  0  0  0  0  0  0  0
   28.5374    2.4393   -3.8920 O   0  0  0  0  0  0  0  0  0  0  0  0
   29.8650    3.8163   -9.7419 O   0  0  0  0  0  0  0  0  0  0  0  0
   28.9256    1.4117   -3.4341 C   0  0  0  0  0  0  0  0  0  0  0  0
   38.5498    3.4107   -5.1196 S   0  0  0  0  0  0  0  0  0  0  0  0
   32.2939    4.7369   -7.0121 C   0  0  0  0  0  0  0  0  0  0  0  0
   29.4553    2.2542   -8.3332 O   0  0  0  0  0  0  0  0  0  0  0  0
   31.1196    2.0265   -4.5587 C   0  0  0  0  0  0  0  0  0  0  0  0
   28.2954    0.6991   -2.6041 O   0  0  0  0  0  0  0  0  0  0  0  0
   32.2342    2.3038   -7.6716 C   0  0  0  0  0  0  0  0  0  0  0  0
   30.3419    1.0486   -3.6924 C   0  0  0  0  0  0  0  0  0  0  0  0
   39.0406    4.2467   -4.0048 C   0  0  0  0  0  0  0  0  0  0  0  0
   36.8416    4.9556   -4.5440 C   0  0  0  0  0  0  0  0  0  0  0  0
   34.3386    4.6687   -5.4247 C   0  0  0  0  0  0  0  0  0  0  0  0
   31.4472    3.6244   -7.8256 C   0  0  0  0  0  0  0  0  0  0  0  0
   36.2052    5.0093   -7.4740 F   0  0  0  0  0  0  0  0  0  0  0  0
   37.2599    3.9990   -5.5303 C   0  0  0  0  0  0  0  0  0  0  0  0
   34.9559    3.5890   -6.1914 C   0  0  0  0  0  0  0  0  0  0  0  0
   35.4198    5.2197   -4.5332 C   0  0  0  0  0  0  0  0  0  0  0  0
   31.4970    5.9064   -6.9819 O   0  0  0  0  0  0  0  0  0  0  0  0
   39.9175    3.7756   -3.0117 C   0  0  0  0  0  0  0  0  0  0  0  0
   31.2742    3.3962   -5.2740 C   0  0  0  0  0  0  0  0  0  0  0  0
   32.6161    4.3037   -5.5221 C   0  0  0  0  0  0  0  0  0  0  0  0
   36.2949    3.8350   -6.6902 C   0  0  0  0  0  0  0  0  0  0  0  0
   30.1085    3.3040   -8.6052 C   0  0  0  0  0  0  0  0  0  0  0  0
   32.2916    5.2557   -4.4290 O   0  0  0  0  0  0  0  0  0  0  0  0
  1 13  1  0
  1 14  1  0
  2 25  1  0
  3  5  2  0
  4 26  2  0
  5 10  1  0
  5 12  1  0
  6 13  1  0
  6 18  1  0
  7 16  1  0
  7 21  1  0
  7 24  1  0
  8 26  1  0
  9 12  2  3
  9 23  1  0
 11 16  1  0
 13 22  1  0
 14 18  1  0
 14 20  2  0
 15 19  1  0
 15 20  1  0
 15 24  1  0
 16 26  1  0
 17 25  1  0
 18 25  1  0
 19 25  1  0
 23 24  1  0
 24 27  1  0
M  END
>  <ID>  (1) 
conformer_0

$$$$
