
     RDKit          3D

 21 22  0  0  0  0  0  0  0  0999 V2000
   34.5423    4.8620   -4.9359 C   0  0  0  0  0  0  0  0  0  0  0  0
   39.1944    4.2522   -3.6339 C   0  0  0  0  0  0  0  0  0  0  0  0
   31.7511    1.6527   -4.6102 O   0  0  0  0  0  0  0  0  0  0  0  0
   32.7948    4.7792   -6.8388 C   0  0  0  0  0  0  0  0  0  0  0  0
   32.1546    1.8416   -7.3995 O   0  0  0  0  0  0  0  0  0  0  0  0
   35.1374    3.8439   -6.9358 C   0  0  0  0  0  0  0  0  0  0  0  0
   36.3901    3.5427   -6.5675 C   0  0  0  0  0  0  0  0  0  0  0  0
   39.3959    3.3377   -4.6405 C   0  0  0  0  0  0  0  0  0  0  0  0
   31.5802    2.8639   -5.1675 C   0  0  0  0  0  0  0  0  0  0  0  0
   34.1848    4.4885   -6.2030 N   0  0  0  0  0  0  0  0  0  0  0  0
   32.3049    5.8742   -5.9931 O   0  0  0  0  0  0  0  0  0  0  0  0
   35.6738    4.9989   -4.2245 C   0  0  0  0  0  0  0  0  0  0  0  0
   37.9750    4.8853   -3.5141 C   0  0  0  0  0  0  0  0  0  0  0  0
   31.4190    4.1629   -7.6111 C   0  0  0  0  0  0  0  0  0  0  0  0
   31.2347    2.7729   -6.6764 C   0  0  0  0  0  0  0  0  0  0  0  0
   36.9556    4.5866   -4.4067 C   0  0  0  0  0  0  0  0  0  0  0  0
   37.2388    3.7529   -5.5336 C   0  0  0  0  0  0  0  0  0  0  0  0
   30.5501    5.2150   -7.6396 O   0  0  0  0  0  0  0  0  0  0  0  0
   38.4543    3.0897   -5.5565 C   0  0  0  0  0  0  0  0  0  0  0  0
   30.8128    3.5160   -8.9751 O   0  0  0  0  0  0  0  0  0  0  0  0
   30.8664    3.7424   -4.3943 O   0  0  0  0  0  0  0  0  0  0  0  0
  1 10  1  0
  1 12  2  0
  2  8  1  0
  2 13  2  0
  3  9  1  0
  4 10  1  0
  4 11  2  0
  4 14  1  0
  5 15  1  0
  6  7  2  0
  6 10  1  0
  7 17  1  0
  8 19  2  0
  9 15  1  0
  9 21  1  0
 12 16  1  0
 13 16  1  0
 14 15  1  0
 14 18  1  0
 14 20  1  0
 16 17  2  0
 17 19  1  0
M  END
>  <ID>  (1) 
conformer_0

$$$$
