
     RDKit          3D

 34 37  0  0  0  0  0  0  0  0999 V2000
   30.3589    3.0684   -9.1181 C   0  0  0  0  0  0  0  0  0  0  0  0
   32.1038    4.3469   -7.1033 C   0  0  0  0  0  0  0  0  0  0  0  0
   30.7834    3.0967   -5.4677 O   0  0  0  0  0  0  0  0  0  0  0  0
   34.3075    4.7542   -4.4830 C   0  0  0  0  0  0  0  0  0  0  0  0
   38.7361    6.1590   -3.5498 C   0  0  0  0  0  0  0  0  0  0  0  0
   29.9914    3.4982  -10.2609 O   0  0  0  0  0  0  0  0  0  0  0  0
   32.8849    4.1955   -4.7528 C   0  0  0  0  0  0  0  0  0  0  0  0
   29.7578    1.6335   -5.5489 C   0  0  0  0  0  0  0  0  0  0  0  0
   30.2178    5.0999   -8.0396 O   0  0  0  0  0  0  0  0  0  0  0  0
   29.6805    0.7255   -3.1600 C   0  0  0  0  0  0  0  0  0  0  0  0
   31.0719    5.5327   -5.3634 O   0  0  0  0  0  0  0  0  0  0  0  0
   35.6151    4.2151   -6.4410 N   0  0  0  0  0  0  0  0  0  0  0  0
   37.4904    6.1744   -4.1321 C   0  0  0  0  0  0  0  0  0  0  0  0
   35.6775    4.8384   -5.2227 C   0  0  0  0  0  0  0  0  0  0  0  0
   36.9963    5.0284   -4.7757 C   0  0  0  0  0  0  0  0  0  0  0  0
   39.5606    5.0087   -3.5574 C   0  0  0  0  0  0  0  0  0  0  0  0
   32.5813    3.0237   -3.7065 C   0  0  0  0  0  0  0  0  0  0  0  0
   37.6260    3.1082   -6.0901 C   0  0  0  0  0  0  0  0  0  0  0  0
   39.1113    3.8696   -4.2513 C   0  0  0  0  0  0  0  0  0  0  0  0
   34.4265    4.4614   -7.2441 C   0  0  0  0  0  0  0  0  0  0  0  0
   36.5453    3.3189   -6.8478 C   0  0  0  0  0  0  0  0  0  0  0  0
   28.5227    1.3233   -2.7989 O   0  0  0  0  0  0  0  0  0  0  0  0
   39.7228    2.7624   -4.1872 O   0  0  0  0  0  0  0  0  0  0  0  0
   30.9589    3.9589   -8.0415 C   0  0  0  0  0  0  0  0  0  0  0  0
   37.9009    3.9855   -5.0584 C   0  0  0  0  0  0  0  0  0  0  0  0
   30.4024    1.1717   -4.3005 C   0  0  0  0  0  0  0  0  0  0  0  0
   28.4447    1.4601   -5.6461 O   0  0  0  0  0  0  0  0  0  0  0  0
   34.6212    4.4033   -3.1532 O   0  0  0  0  0  0  0  0  0  0  0  0
   33.2766    5.2467   -7.0757 O   0  0  0  0  0  0  0  0  0  0  0  0
   33.5815    2.0477   -3.8198 O   0  0  0  0  0  0  0  0  0  0  0  0
   31.6068    4.2830   -5.6319 C   0  0  0  0  0  0  0  0  0  0  0  0
   30.1793    1.9128   -8.7934 O   0  0  0  0  0  0  0  0  0  0  0  0
   34.1065    3.3007   -7.8503 O   0  0  0  0  0  0  0  0  0  0  0  0
   31.1822    2.4996   -4.0588 C   0  0  0  0  0  0  0  0  0  0  0  0
  1  6  2  0
  1 24  1  0
  1 32  1  0
  2 24  1  0
  2 29  1  0
  2 31  1  0
  3 31  1  0
  3 34  1  0
  4  7  1  0
  4 14  1  0
  4 28  1  0
  5 13  2  0
  5 16  1  0
  7 17  1  0
  7 31  1  0
  8 26  1  0
  8 27  1  0
  9 24  1  0
 10 22  1  0
 10 26  1  0
 11 31  1  0
 12 14  1  0
 12 20  1  0
 12 21  1  0
 13 15  1  0
 14 15  1  0
 15 25  1  0
 16 19  1  0
 17 30  1  0
 17 34  1  0
 18 21  2  0
 18 25  1  0
 19 23  2  0
 19 25  1  0
 20 29  1  0
 20 33  2  0
 26 34  1  0
M  END
>  <ID>  (1) 
conformer_0

$$$$
