
     RDKit          3D

 30 32  0  0  0  0  0  0  0  0999 V2000
   33.4132    4.3340   -5.8730 C   0  0  0  0  0  0  0  0  0  0  0  0
   33.4055    5.7053   -5.2693 C   0  0  0  0  0  0  0  0  0  0  0  0
   31.1634    5.1036   -5.5121 O   0  0  0  0  0  0  0  0  0  0  0  0
   31.1643    2.3265   -4.3168 O   0  0  0  0  0  0  0  0  0  0  0  0
   29.5248    3.3402  -10.5508 O   0  0  0  0  0  0  0  0  0  0  0  0
   30.1261    2.7423   -9.5456 C   0  0  0  0  0  0  0  0  0  0  0  0
   30.4500    3.2987   -8.1484 C   0  0  0  0  0  0  0  0  0  0  0  0
   36.5623    3.7588   -7.6799 O   0  0  0  0  0  0  0  0  0  0  0  0
   32.1639    3.1691   -4.6887 C   0  0  0  0  0  0  0  0  0  0  0  0
   39.6516    5.4229   -3.5445 C   0  0  0  0  0  0  0  0  0  0  0  0
   31.8886    3.9599   -5.9921 C   0  0  0  0  0  0  0  0  0  0  0  0
   34.0368    5.1818   -8.0810 O   0  0  0  0  0  0  0  0  0  0  0  0
   32.1001    5.5998   -4.3004 C   0  0  0  0  0  0  0  0  0  0  0  0
   34.2729    4.1988   -7.0891 C   0  0  0  0  0  0  0  0  0  0  0  0
   38.7243    1.6579   -4.8759 O   0  0  0  0  0  0  0  0  0  0  0  0
   37.6823    6.3799   -4.6009 C   0  0  0  0  0  0  0  0  0  0  0  0
   38.1206    3.9708   -4.7362 C   0  0  0  0  0  0  0  0  0  0  0  0
   35.7898    4.2215   -6.7917 C   0  0  0  0  0  0  0  0  0  0  0  0
   33.8616    4.2517   -3.2842 O   0  0  0  0  0  0  0  0  0  0  0  0
   38.8721    6.4994   -3.8859 C   0  0  0  0  0  0  0  0  0  0  0  0
   37.3143    5.1184   -5.0669 C   0  0  0  0  0  0  0  0  0  0  0  0
   36.1056    5.0707   -5.8094 N   0  0  0  0  0  0  0  0  0  0  0  0
   39.3406    4.1647   -4.0513 C   0  0  0  0  0  0  0  0  0  0  0  0
   31.7441    3.1802   -7.2838 C   0  0  0  0  0  0  0  0  0  0  0  0
   37.7772    2.5785   -5.0201 C   0  0  0  0  0  0  0  0  0  0  0  0
   30.1934    4.6497   -8.0367 O   0  0  0  0  0  0  0  0  0  0  0  0
   32.4901    2.0326   -7.4920 O   0  0  0  0  0  0  0  0  0  0  0  0
   30.5037    1.5102   -9.8184 O   0  0  0  0  0  0  0  0  0  0  0  0
   36.6016    2.1887   -5.2138 O   0  0  0  0  0  0  0  0  0  0  0  0
   32.3940    4.2240   -3.5829 C   0  0  0  0  0  0  0  0  0  0  0  0
  1  2  1  0
  1 11  1  0
  1 14  1  0
  2 13  1  0
  3 11  1  0
  3 13  1  0
  4  9  1  0
  5  6  2  0
  6  7  1  0
  6 28  1  0
  7 24  1  0
  7 26  1  0
  8 18  2  0
  9 11  1  0
  9 30  1  0
 10 20  2  0
 10 23  1  0
 11 24  1  0
 12 14  1  0
 13 30  1  0
 14 18  1  0
 15 25  2  0
 16 20  1  0
 16 21  2  0
 17 21  1  0
 17 23  2  0
 17 25  1  0
 18 22  1  0
 19 30  1  0
 21 22  1  0
 24 27  1  0
 25 29  1  0
M  END
>  <ID>  (1) 
conformer_0

$$$$
