
     RDKit          3D

 29 31  0  0  0  0  0  0  0  0999 V2000
   39.5897    2.8017   -3.8811 C   0  0  0  0  0  0  0  0  0  0  0  0
   40.6022    2.1904   -3.2036 F   0  0  0  0  0  0  0  0  0  0  0  0
   27.4310    1.2569   -3.8761 O   0  0  0  0  0  0  0  0  0  0  0  0
   30.1720    2.4262   -4.3186 C   0  0  0  0  0  0  0  0  0  0  0  0
   32.1859    3.5324   -5.2260 C   0  0  0  0  0  0  0  0  0  0  0  0
   37.5571    4.0389   -5.3243 N   0  0  0  0  0  0  0  0  0  0  0  0
   28.5172    0.8381   -3.4630 C   0  0  0  0  0  0  0  0  0  0  0  0
   28.7377    0.3538   -2.3517 O   0  0  0  0  0  0  0  0  0  0  0  0
   33.7554    4.4546   -3.5616 C   0  0  0  0  0  0  0  0  0  0  0  0
   31.7193    3.6061   -7.5199 C   0  0  0  0  0  0  0  0  0  0  0  0
   36.4616    4.5991   -6.1084 C   0  0  0  0  0  0  0  0  0  0  0  0
   29.7429    0.9434   -4.4495 C   0  0  0  0  0  0  0  0  0  0  0  0
   32.5730    3.8811   -3.9891 C   0  0  0  0  0  0  0  0  0  0  0  0
   34.8271    4.7055   -4.3691 C   0  0  0  0  0  0  0  0  0  0  0  0
   38.0655    6.2845   -4.0562 C   0  0  0  0  0  0  0  0  0  0  0  0
   30.9735    2.8425   -5.4344 N   0  0  0  0  0  0  0  0  0  0  0  0
   38.0081    2.7451   -5.6232 C   0  0  0  0  0  0  0  0  0  0  0  0
   38.9418    2.1717   -4.8949 N   0  0  0  0  0  0  0  0  0  0  0  0
   29.5332    3.5997  -10.2290 N   0  0  0  0  0  0  0  0  0  0  0  0
   30.9837    4.2248   -8.5533 N   0  0  0  0  0  0  0  0  0  0  0  0
   34.0817    4.1780   -6.6515 C   0  0  0  0  0  0  0  0  0  0  0  0
   36.7262    5.0969   -7.2761 O   0  0  0  0  0  0  0  0  0  0  0  0
   38.2971    4.7357   -4.3157 C   0  0  0  0  0  0  0  0  0  0  0  0
   35.0611    4.4900   -5.6792 C   0  0  0  0  0  0  0  0  0  0  0  0
   37.5784    2.1263   -6.6853 N   0  0  0  0  0  0  0  0  0  0  0  0
   30.7286    2.7814   -6.7769 N   0  0  0  0  0  0  0  0  0  0  0  0
   32.7689    3.8055   -6.4783 C   0  0  0  0  0  0  0  0  0  0  0  0
   39.2746    4.1111   -3.5565 C   0  0  0  0  0  0  0  0  0  0  0  0
   29.8511    3.4464   -8.9844 C   0  0  0  0  0  0  0  0  0  0  0  0
  1  2  1  0
  1 18  2  0
  1 28  1  0
  3  7  2  0
  4 12  1  0
  4 16  1  0
  5 13  2  0
  5 16  1  0
  5 27  1  0
  6 11  1  0
  6 17  1  0
  6 23  1  0
  7  8  1  0
  7 12  1  0
  9 13  1  0
  9 14  1  0
 10 20  2  3
 10 26  1  0
 10 27  1  0
 11 22  2  0
 11 24  1  0
 14 24  2  0
 15 23  1  0
 16 26  1  0
 17 18  1  0
 17 25  2  0
 19 29  1  0
 20 29  1  0
 21 24  1  0
 21 27  2  0
 23 28  2  0
M  END
>  <ID>  (1) 
conformer_0

$$$$
