
     RDKit          3D

 24 26  0  0  0  0  0  0  0  0999 V2000
   31.6491    3.8282   -5.7676 C   0  0  0  0  0  0  0  0  0  0  0  0
   34.1395    4.5723   -3.8479 C   0  0  0  0  0  0  0  0  0  0  0  0
   29.9668    2.9937   -9.0192 C   0  0  0  0  0  0  0  0  0  0  0  0
   29.8061    3.5531  -10.2640 N   0  0  0  0  0  0  0  0  0  0  0  0
   35.7847    4.1467   -7.2488 C   0  0  0  0  0  0  0  0  0  0  0  0
   31.7061    6.1210   -6.7787 S   0  0  0  0  0  0  0  0  0  0  0  0
   28.6814    3.5312  -11.0358 O   0  0  0  0  0  0  0  0  0  0  0  0
   33.8801    4.9642   -6.2617 C   0  0  0  0  0  0  0  0  0  0  0  0
   32.6331    4.4511   -3.5588 C   0  0  0  0  0  0  0  0  0  0  0  0
   31.1763    2.8955   -6.8135 C   0  0  0  0  0  0  0  0  0  0  0  0
   37.6616    5.2298   -4.4968 C   0  0  0  0  0  0  0  0  0  0  0  0
   36.0287    4.0705   -5.8635 C   0  0  0  0  0  0  0  0  0  0  0  0
   38.7890    5.1937   -3.6717 C   0  0  0  0  0  0  0  0  0  0  0  0
   39.5769    4.0796   -3.7071 C   0  0  0  0  0  0  0  0  0  0  0  0
   30.6952    2.8439   -3.8697 O   0  0  0  0  0  0  0  0  0  0  0  0
   32.4168    4.9935   -6.1456 C   0  0  0  0  0  0  0  0  0  0  0  0
   29.2535    2.0896   -8.6749 O   0  0  0  0  0  0  0  0  0  0  0  0
   34.8542    4.6956   -5.2134 C   0  0  0  0  0  0  0  0  0  0  0  0
   38.1456    3.0543   -5.2840 C   0  0  0  0  0  0  0  0  0  0  0  0
   39.2460    3.0294   -4.5048 N   0  0  0  0  0  0  0  0  0  0  0  0
   31.1267    3.4702   -8.2351 C   0  0  0  0  0  0  0  0  0  0  0  0
   37.2807    4.1262   -5.2283 C   0  0  0  0  0  0  0  0  0  0  0  0
   31.8296    3.4359   -4.3442 C   0  0  0  0  0  0  0  0  0  0  0  0
   34.4446    4.5048   -7.4699 C   0  0  0  0  0  0  0  0  0  0  0  0
  1 10  1  0
  1 16  1  0
  1 23  1  0
  2  9  1  0
  2 18  1  0
  3  4  1  0
  3 17  2  0
  3 21  1  0
  4  7  1  0
  5 12  1  0
  5 24  1  0
  6 16  2  0
  8 16  1  0
  8 18  1  0
  8 24  1  0
  9 23  1  0
 10 21  1  0
 11 13  2  0
 11 22  1  0
 12 18  1  0
 12 22  1  0
 13 14  1  0
 14 20  2  0
 15 23  1  0
 19 20  1  0
 19 22  2  0
M  END
>  <ID>  (1) 
conformer_0

$$$$
