
     RDKit          3D

 34 36  0  0  0  0  0  0  0  0999 V2000
   37.9142    4.4948   -4.6303 C   0  0  0  0  0  0  0  0  0  0  0  0
   36.6158    4.0896   -6.4383 C   0  0  0  0  0  0  0  0  0  0  0  0
   38.9910    3.9988   -3.7461 C   0  0  0  0  0  0  0  0  0  0  0  0
   38.9750    6.2258   -3.6550 C   0  0  0  0  0  0  0  0  0  0  0  0
   37.9888    6.6688   -5.7461 F   0  0  0  0  0  0  0  0  0  0  0  0
   37.9299    5.8278   -4.6390 C   0  0  0  0  0  0  0  0  0  0  0  0
   38.3924    1.2778   -5.8290 O   0  0  0  0  0  0  0  0  0  0  0  0
   31.7394    3.3276   -5.5982 C   0  0  0  0  0  0  0  0  0  0  0  0
   33.6504    4.1985   -6.8592 C   0  0  0  0  0  0  0  0  0  0  0  0
   32.5415    3.4959   -4.3924 C   0  0  0  0  0  0  0  0  0  0  0  0
   38.4409    2.3975   -5.3329 C   0  0  0  0  0  0  0  0  0  0  0  0
   37.7006    3.5641   -5.6954 C   0  0  0  0  0  0  0  0  0  0  0  0
   31.5604    5.4746   -6.9292 C   0  0  0  0  0  0  0  0  0  0  0  0
   32.0913    4.0364   -6.8490 C   0  0  0  0  0  0  0  0  0  0  0  0
   29.0004    1.7336   -3.7422 C   0  0  0  0  0  0  0  0  0  0  0  0
   30.2961    1.7304  -10.2276 O   0  0  0  0  0  1  0  0  0  0  0  0
   30.2747    1.7878   -4.4362 C   0  0  0  0  0  0  0  0  0  0  0  0
   31.1979    3.2040   -7.7837 C   0  0  0  0  0  0  0  0  0  0  0  0
   30.4836    2.7742   -5.4186 N   0  0  0  0  0  0  0  0  0  0  0  0
   33.6760    4.4239   -4.4134 C   0  0  0  0  0  0  0  0  0  0  0  0
   39.6967    5.0669   -3.2689 F   0  0  0  0  0  0  0  0  0  0  0  0
   40.1447    2.0063   -3.7154 O   0  0  0  0  0  0  0  0  0  0  0  0
   29.4280    2.7963   -9.6688 P   0  0  0  0  0  4  0  0  0  0  0  0
   31.0629    0.8467   -4.3466 O   0  0  0  0  0  0  0  0  0  0  0  0
   28.8552    3.6842  -10.8130 O   0  0  0  0  0  0  0  0  0  0  0  0
   30.4112    3.8445   -8.7930 N   0  0  0  0  0  0  0  0  0  0  0  0
   39.1634    2.7104   -4.1542 N   0  0  0  0  0  0  0  0  0  0  0  0
   34.1397    4.9589   -8.0023 F   0  0  0  0  0  0  0  0  0  0  0  0
   34.3821    4.6805   -5.6660 C   0  0  0  0  0  0  0  0  0  0  0  0
   28.2598    2.1789   -8.8423 O   0  0  0  0  0  0  0  0  0  0  0  0
   38.0212    7.0184   -3.1623 F   0  0  0  0  0  0  0  0  0  0  0  0
   36.6298    5.3101   -4.4629 C   0  0  0  0  0  0  0  0  0  0  0  0
   35.7734    5.1260   -5.6783 C   0  0  0  0  0  0  0  0  0  0  0  0
   36.7665    4.3953   -7.7785 F   0  0  0  0  0  0  0  0  0  0  0  0
  1  3  1  0
  1  6  1  0
  1 12  1  0
  2 12  1  0
  2 33  1  0
  2 34  1  0
  3 21  1  0
  3 27  1  0
  4  6  1  0
  4 31  1  0
  5  6  1  0
  6 32  1  0
  7 11  2  0
  8 10  2  0
  8 14  1  0
  8 19  1  0
  9 14  1  0
  9 28  1  0
  9 29  1  0
 10 20  1  0
 11 12  1  0
 11 27  1  0
 13 14  1  0
 14 18  1  0
 15 17  1  0
 16 23  2  0
 17 19  1  0
 17 24  2  0
 18 26  1  0
 20 29  1  0
 22 27  1  0
 23 25  1  0
 23 26  1  0
 23 30  1  0
 29 33  1  0
 32 33  1  0
M  END
>  <ID>  (1) 
conformer_0

$$$$
