
     RDKit          3D

 24 25  0  0  0  0  0  0  0  0999 V2000
   31.0800    3.1101   -5.8162 C   0  0  0  0  0  0  0  0  0  0  0  0
   32.1012    4.0418   -5.0295 O   0  0  0  0  0  0  0  0  0  0  0  0
   31.9328    1.8810   -6.0836 O   0  0  0  0  0  0  0  0  0  0  0  0
   30.0623    0.3377   -4.4972 O   0  0  0  0  0  0  0  0  0  0  0  0
   38.6672    4.9699   -4.5413 O   0  0  0  0  0  0  0  0  0  0  0  0
   30.2818    3.5148   -9.6455 O   0  0  0  0  0  0  0  0  0  0  0  0
   36.9640    4.2466   -6.0793 C   0  0  0  0  0  0  0  0  0  0  0  0
   30.6907    2.9006   -8.3793 C   0  0  0  0  0  0  0  0  0  0  0  0
   33.2976    4.1135   -5.8421 C   0  0  0  0  0  0  0  0  0  0  0  0
   35.0227    4.6567   -4.1580 C   0  0  0  0  0  0  0  0  0  0  0  0
   32.7342    5.9721   -7.1463 O   0  0  0  0  0  0  0  0  0  0  0  0
   30.4355    5.0466   -7.6395 O   0  0  0  0  0  0  0  0  0  0  0  0
   31.1768    3.9301   -7.2783 C   0  0  0  0  0  0  0  0  0  0  0  0
   39.0413    2.7010   -4.7265 O   0  0  0  0  0  0  0  0  0  0  0  0
   34.6147    4.2981   -5.3991 C   0  0  0  0  0  0  0  0  0  0  0  0
   28.5105    1.6304   -3.6073 O   0  0  0  0  0  0  0  0  0  0  0  0
   35.2783    3.7573   -7.5821 F   0  0  0  0  0  0  0  0  0  0  0  0
   30.4461    2.6566   -4.3053 C   0  0  0  0  0  0  0  0  0  0  0  0
   39.2754    3.8506   -3.8993 C   0  0  0  0  0  0  0  0  0  0  0  0
   32.6702    4.5274   -7.2015 C   0  0  0  0  0  0  0  0  0  0  0  0
   29.5965    1.4420   -4.1885 C   0  0  0  0  0  0  0  0  0  0  0  0
   36.3916    4.8493   -3.8262 C   0  0  0  0  0  0  0  0  0  0  0  0
   35.6121    4.0956   -6.3323 C   0  0  0  0  0  0  0  0  0  0  0  0
   37.3515    4.6797   -4.8248 C   0  0  0  0  0  0  0  0  0  0  0  0
  1  2  1  0
  1  3  1  0
  1 13  1  0
  1 18  1  0
  2  9  1  0
  4 21  2  0
  5 19  1  0
  5 24  1  0
  6  8  1  0
  7 23  2  0
  7 24  1  0
  8 13  1  0
  9 15  1  0
  9 20  1  0
 10 15  2  0
 10 22  1  0
 11 20  1  0
 12 13  1  0
 13 20  1  0
 14 19  1  0
 15 23  1  0
 16 21  1  0
 17 23  1  0
 18 21  1  0
 22 24  2  0
M  END
>  <ID>  (1) 
conformer_0

$$$$
