
     RDKit          3D

 34 35  0  0  0  0  0  0  0  0999 V2000
   34.5722    3.2226   -7.2667 O   0  0  0  0  0  0  0  0  0  0  0  0
   37.7152    1.4573   -5.4908 O   0  0  0  0  0  0  0  0  0  0  0  0
   30.9260    5.6694   -6.5867 O   0  0  0  0  0  0  0  0  0  0  0  0
   33.1276    5.5517   -8.0045 O   0  0  0  0  0  0  0  0  0  0  0  0
   36.9586    5.5017   -4.4192 C   0  0  0  0  0  0  0  0  0  0  0  0
   31.1839    4.3156   -6.9685 C   0  0  0  0  0  0  0  0  0  0  0  0
   34.9742    4.0051   -4.4112 N   0  0  0  0  0  0  0  0  0  0  0  0
   30.4989    3.3794   -7.9378 O   0  0  0  0  0  0  0  0  0  0  0  0
   36.6238    2.3344   -5.8660 C   0  0  0  0  0  0  0  0  0  0  0  0
   39.6280    5.3129   -3.6387 C   0  0  0  0  0  0  0  0  0  0  0  0
   39.5148    3.0637   -4.1428 O   0  0  0  0  0  0  0  0  0  0  0  0
   31.3177    3.6966   -5.5451 C   0  0  0  0  0  0  0  0  0  0  0  0
   28.0166    1.9358   -9.0725 O   0  0  0  0  0  0  0  0  0  0  0  0
   30.2383    2.7235   -9.2381 C   0  0  0  0  0  0  0  0  0  0  0  0
   37.0941    3.7734   -6.0870 C   0  0  0  0  0  0  0  0  0  0  0  0
   28.7209    2.8287   -9.5742 C   0  0  0  0  0  0  0  0  0  0  0  0
   33.3105    4.3898   -3.0285 O   0  0  0  0  0  0  0  0  0  0  0  0
   39.0025    4.2268   -4.2294 C   0  0  0  0  0  0  0  0  0  0  0  0
   32.6172    4.3731   -7.5190 C   0  0  0  0  0  0  0  0  0  0  0  0
   32.7830    3.6605   -5.2175 C   0  0  0  0  0  0  0  0  0  0  0  0
   33.5012    3.7648   -6.4850 C   0  0  0  0  0  0  0  0  0  0  0  0
   31.5145    1.3026   -5.4214 O   0  0  0  0  0  0  0  0  0  0  0  0
   29.5256    0.7981   -3.6178 C   0  0  0  0  0  0  0  0  0  0  0  0
   29.6941    2.2254   -4.0987 C   0  0  0  0  0  0  0  0  0  0  0  0
   30.7001    2.3807   -5.2237 C   0  0  0  0  0  0  0  0  0  0  0  0
   30.6645    1.7451  -10.1905 O   0  0  0  0  0  0  0  0  0  0  0  0
   33.6589    3.9477   -4.0926 C   0  0  0  0  0  0  0  0  0  0  0  0
   28.5935    3.4906  -10.6819 O   0  0  0  0  0  0  0  0  0  0  0  0
   38.9248    6.4619   -3.4422 C   0  0  0  0  0  0  0  0  0  0  0  0
   35.4619    5.4091   -4.5343 C   0  0  0  0  0  0  0  0  0  0  0  0
   36.5009    4.9728   -6.9384 C   0  0  0  0  0  0  0  0  0  0  0  0
   37.6725    4.4140   -4.9089 C   0  0  0  0  0  0  0  0  0  0  0  0
   37.3152    3.9217   -7.4956 C   0  0  0  0  0  0  0  0  0  0  0  0
   37.5943    6.5658   -3.8114 C   0  0  0  0  0  0  0  0  0  0  0  0
  1 21  1  0
  2  9  1  0
  3  6  1  0
  4 19  1  0
  5 30  1  0
  5 32  1  0
  5 34  2  0
  6  8  1  0
  6 12  1  0
  6 19  1  0
  7 27  1  0
  7 30  1  0
  8 14  1  0
  9 15  1  0
 10 18  1  0
 10 29  2  0
 11 18  2  0
 12 20  1  0
 12 25  1  0
 13 16  2  0
 14 16  1  0
 14 26  2  0
 15 32  1  0
 15 33  1  0
 16 28  1  0
 17 27  2  0
 18 32  1  0
 19 21  1  0
 20 21  1  0
 20 27  1  0
 22 25  1  0
 23 24  1  0
 24 25  1  0
 29 34  1  0
 31 33  1  0
M  END
>  <ID>  (1) 
conformer_0

$$$$
