
     RDKit          3D

 25 25  0  0  0  0  0  0  0  0999 V2000
   39.2263    3.0434   -4.4047 C   0  0  0  0  0  0  0  0  0  0  0  0
   31.1009    0.7382   -4.1696 O   0  0  0  0  0  0  0  0  0  0  0  0
   35.4753    4.4568   -6.7107 C   0  0  0  0  0  0  0  0  0  0  0  0
   29.3220    2.0237   -3.6962 O   0  0  0  0  0  0  0  0  0  0  0  0
   30.0255    3.2202   -9.0220 P   0  0  0  0  0  4  0  0  0  0  0  0
   31.0170    2.8560   -6.2649 C   0  0  0  0  0  0  0  0  0  0  0  0
   31.5655    4.1433   -6.9267 C   0  0  0  0  0  0  0  0  0  0  0  0
   37.0150    4.8894   -4.5938 C   0  0  0  0  0  0  0  0  0  0  0  0
   32.0505    3.7063   -4.1683 C   0  0  0  0  0  0  0  0  0  0  0  0
   31.0561    4.3528   -8.3120 O   0  0  0  0  0  0  0  0  0  0  0  0
   30.4753    1.8150   -4.1472 C   0  0  0  0  0  0  0  0  0  0  0  0
   32.7894    4.5233   -6.3647 O   0  0  0  0  0  0  0  0  0  0  0  0
   29.4317    3.6672  -10.4331 O   0  0  0  0  0  1  0  0  0  0  0  0
   34.2851    4.9449   -4.4853 N   0  0  0  0  0  0  0  0  0  0  0  0
   30.9040    2.0234   -9.2873 O   0  0  0  0  0  0  0  0  0  0  0  0
   28.7339    2.9280   -8.1762 O   0  0  0  0  0  0  0  0  0  0  0  0
   38.4117    2.8481   -5.4851 C   0  0  0  0  0  0  0  0  0  0  0  0
   35.7066    4.9751   -4.3473 C   0  0  0  0  0  0  0  0  0  0  0  0
   39.2203    4.2445   -3.7158 N   0  0  0  0  0  0  0  0  0  0  0  0
   34.0919    4.8967   -6.9206 C   0  0  0  0  0  0  0  0  0  0  0  0
   36.4429    4.1751   -5.6498 C   0  0  0  0  0  0  0  0  0  0  0  0
   31.0625    2.8997   -4.8836 O   0  0  0  0  0  0  0  0  0  0  0  0
   38.1572    5.0581   -3.9310 C   0  0  0  0  0  0  0  0  0  0  0  0
   37.1490    2.9521   -5.8712 C   0  0  0  0  0  0  0  0  0  0  0  0
   32.8521    4.7648   -4.9016 C   0  0  0  0  0  0  0  0  0  0  0  0
  1 17  1  0
  1 19  1  0
  2 11  2  0
  3 20  1  0
  3 21  1  0
  4 11  1  0
  5 10  1  0
  5 13  2  0
  5 15  1  0
  5 16  1  0
  6  7  1  0
  6 22  1  0
  7 10  1  0
  7 12  1  0
  8 18  1  0
  8 21  1  0
  8 23  1  0
  9 25  1  0
 11 22  1  0
 12 20  1  0
 14 18  1  0
 14 25  1  0
 17 24  1  0
 19 23  2  0
 21 24  1  0
M  END
>  <ID>  (1) 
conformer_0

$$$$
