
     RDKit          3D

 43 46  0  0  0  0  0  0  0  0999 V2000
   27.8282    0.8438   -3.7302 C   0  0  0  0  0  0  0  0  0  0  0  0
   38.8476    6.7354   -4.7005 F   0  0  0  0  0  0  0  0  0  0  0  0
   34.7247    4.4885   -4.4616 O   0  0  0  0  0  0  0  0  0  0  0  0
   27.9577    2.6906  -11.2075 C   0  0  0  0  0  0  0  0  0  0  0  0
   34.6882    4.5525   -5.8754 C   0  0  0  0  0  0  0  0  0  0  0  0
   29.0591    1.1339   -4.5925 C   0  0  0  0  0  0  0  0  0  0  0  0
   27.1849    1.3508   -7.8066 C   0  0  0  0  0  0  0  0  0  0  0  0
   29.9186    3.2246   -8.1305 C   0  0  0  0  0  0  0  0  0  0  0  0
   36.7390    4.0784   -7.1372 C   0  0  0  0  0  0  0  0  0  0  0  0
   31.4065    3.3237   -7.4773 C   0  0  0  0  0  0  0  0  0  0  0  0
   33.3051    4.1193   -3.9871 C   0  0  0  0  0  0  0  0  0  0  0  0
   35.4604    4.6861   -7.1192 C   0  0  0  0  0  0  0  0  0  0  0  0
   31.8554    1.5039   -5.0789 O   0  0  0  0  0  0  0  0  0  0  0  0
   30.5510    1.7581   -9.7995 O   0  0  0  0  0  0  0  0  0  0  0  0
   33.2348    4.5483   -6.3060 C   0  0  0  0  0  0  0  0  0  0  0  0
   31.4344    2.5540   -4.1844 C   0  0  0  0  0  0  0  0  0  0  0  0
   28.7215    3.4592  -11.8538 O   0  0  0  0  0  0  0  0  0  0  0  0
   28.2649    2.4596   -9.8020 N   0  0  0  0  0  0  0  0  0  0  0  0
   39.7574    5.7580   -2.8063 C   0  0  0  0  0  0  0  0  0  0  0  0
   26.9621    2.2561   -9.0376 C   0  0  0  0  0  0  0  0  0  0  0  0
   32.3685    3.8459   -5.1923 C   0  0  0  0  0  0  0  0  0  0  0  0
   31.0227    3.8651   -6.0067 C   0  0  0  0  0  0  0  0  0  0  0  0
   38.2857    5.6901   -4.0037 C   0  0  0  0  0  0  0  0  0  0  0  0
   34.9833    5.3379   -8.1155 O   0  0  0  0  0  0  0  0  0  0  0  0
   38.4515    1.7286   -6.1327 N   0  0  0  0  0  0  0  0  0  0  0  0
   26.7155    0.8221   -4.3183 O   0  0  0  0  0  0  0  0  0  0  0  0
   32.8411    3.8987   -7.5188 O   0  0  0  0  0  0  0  0  0  0  0  0
   40.6145    1.9832   -3.3951 O   0  0  0  0  0  0  0  0  0  0  0  0
   40.0427    4.5601   -2.9551 N   0  0  0  0  0  0  0  0  0  0  0  0
   26.9670    2.0818  -11.7524 O   0  0  0  0  0  0  0  0  0  0  0  0
   38.9691    3.2086   -4.5497 C   0  0  0  0  0  0  0  0  0  0  0  0
   37.4011    5.0207   -4.8988 C   0  0  0  0  0  0  0  0  0  0  0  0
   29.9031    2.2415   -3.8794 C   0  0  0  0  0  0  0  0  0  0  0  0
   39.9022    2.2046   -4.3947 C   0  0  0  0  0  0  0  0  0  0  0  0
   30.7308    5.2482   -6.3293 O   0  0  0  0  0  0  0  0  0  0  0  0
   37.5122    6.1987   -2.9555 F   0  0  0  0  0  0  0  0  0  0  0  0
   39.4799    1.1823   -5.3864 C   0  0  0  0  0  0  0  0  0  0  0  0
   38.8546    4.4209   -3.9601 C   0  0  0  0  0  0  0  0  0  0  0  0
   38.1863    2.9155   -5.6824 C   0  0  0  0  0  0  0  0  0  0  0  0
   37.3065    3.9775   -5.8437 C   0  0  0  0  0  0  0  0  0  0  0  0
   39.9667    6.8710   -2.3984 F   0  0  0  0  0  0  0  0  0  0  0  0
   28.0129    0.7274   -2.4754 O   0  0  0  0  0  0  0  0  0  0  0  0
   29.6913    2.6283   -9.4170 C   0  0  0  0  0  0  0  0  0  0  0  0
  1  6  1  0
  1 26  2  0
  1 42  1  0
  2 23  1  0
  3  5  1  0
  3 11  1  0
  4 17  2  0
  4 18  1  0
  4 30  1  0
  5 12  1  0
  5 15  1  0
  6 33  1  0
  7 20  1  0
  8 10  1  0
  8 43  1  0
  9 12  1  0
  9 40  1  0
 10 22  1  0
 10 27  1  0
 11 21  1  0
 12 24  2  0
 13 16  1  0
 14 43  2  0
 15 21  1  0
 15 27  1  0
 16 21  1  0
 16 33  1  0
 18 20  1  0
 18 43  1  0
 19 29  1  0
 19 41  1  0
 21 22  1  0
 22 35  1  0
 23 32  1  0
 23 36  1  0
 23 38  1  0
 25 37  1  0
 25 39  1  0
 28 34  2  0
 29 38  1  0
 31 34  1  0
 31 38  1  0
 31 39  2  0
 32 40  1  0
 34 37  1  0
 39 40  1  0
M  END
>  <ID>  (1) 
conformer_0

$$$$
