
     RDKit          3D

 26 29  0  0  0  0  0  0  0  0999 V2000
   34.4446    4.5826   -6.6662 C   0  0  0  0  0  0  0  0  0  0  0  0
   38.5242    2.1367   -5.5177 C   0  0  0  0  0  0  0  0  0  0  0  0
   39.4876    2.5901   -4.5445 N   0  0  0  0  0  0  0  0  0  0  0  0
   29.2676    3.4810   -9.9190 O   0  0  0  0  0  1  0  0  0  0  0  0
   32.0818    3.4958   -6.5126 C   0  0  0  0  0  0  0  0  0  0  0  0
   30.7072    2.7916   -6.7840 C   0  0  0  0  0  0  0  0  0  0  0  0
   33.5582    5.3590   -5.7132 C   0  0  0  0  0  0  0  0  0  0  0  0
   34.1374    4.6838   -7.9849 O   0  0  0  0  0  0  0  0  0  0  0  0
   32.4523    4.7203   -3.7411 C   0  0  0  0  0  0  0  0  0  0  0  0
   32.1446    5.0278   -6.2493 C   0  0  0  0  0  0  0  0  0  0  0  0
   38.0677    4.2434   -4.9315 C   0  0  0  0  0  0  0  0  0  0  0  0
   36.2295    5.7999   -5.3356 C   0  0  0  0  0  0  0  0  0  0  0  0
   32.7089    2.9070   -5.3665 O   0  0  0  0  0  0  0  0  0  0  0  0
   35.9084    4.6690   -6.1833 C   0  0  0  0  0  0  0  0  0  0  0  0
   37.6612    3.2060   -5.7395 C   0  0  0  0  0  0  0  0  0  0  0  0
   33.7742    4.9700   -4.3529 O   0  0  0  0  0  0  0  0  0  0  0  0
   39.5528    4.9492   -3.4473 N   0  0  0  0  0  0  0  0  0  0  0  0
   30.3473    3.2767   -8.5644 P   0  0  0  0  0  4  0  0  0  0  0  0
   30.6241    2.6406   -4.0165 C   0  0  0  0  0  0  0  0  0  0  0  0
   30.3368    4.8292   -8.2165 O   0  0  0  0  0  0  0  0  0  0  0  0
   38.5902    5.9395   -3.6827 C   0  0  0  0  0  0  0  0  0  0  0  0
   31.9750    3.3454   -4.1549 C   0  0  0  0  0  0  0  0  0  0  0  0
   36.5494    3.4482   -6.4789 N   0  0  0  0  0  0  0  0  0  0  0  0
   31.1281    2.1163   -9.1604 O   0  0  0  0  0  0  0  0  0  0  0  0
   39.2601    3.8809   -4.1846 C   0  0  0  0  0  0  0  0  0  0  0  0
   37.5784    5.5048   -4.6761 C   0  0  0  0  0  0  0  0  0  0  0  0
  1  7  1  0
  1  8  1  0
  1 14  1  0
  2  3  1  0
  2 15  1  0
  3 25  1  0
  4 18  2  0
  5  6  1  0
  5 10  1  0
  5 13  1  0
  6 18  1  0
  7 10  1  0
  7 16  1  0
  9 16  1  0
  9 22  1  0
 11 15  1  0
 11 25  2  0
 11 26  1  0
 12 14  1  0
 12 26  1  0
 13 22  1  0
 14 23  1  0
 15 23  1  0
 17 21  1  0
 17 25  1  0
 18 20  1  0
 18 24  1  0
 19 22  1  0
 21 26  1  0
M  END
>  <ID>  (1) 
conformer_0

$$$$
