
     RDKit          3D

 18 18  0  0  0  0  0  0  0  0999 V2000
    4.8658  107.0497   26.2632 C   0  0  0  0  0  0  0  0  0  0  0  0
    6.0509  107.9676   26.2971 C   0  0  0  0  0  0  0  0  0  0  0  0
   -1.0697  107.3604   21.5620 C   0  0  0  0  0  0  0  0  0  0  0  0
    2.4158  106.3836   24.6511 C   0  0  0  0  0  0  0  0  0  0  0  0
    1.5155  106.9409   24.4298 N   0  0  0  0  0  0  0  0  0  0  0  0
    3.9831  107.1712   25.2595 C   0  0  0  0  0  0  0  0  0  0  0  0
    6.0967  108.9286   25.3238 C   0  0  0  0  0  0  0  0  0  0  0  0
   -1.3580  108.3467   19.4304 C   0  0  0  0  0  0  0  0  0  0  0  0
   -1.4798  107.9421   20.0894 O   0  0  0  0  0  0  0  0  0  0  0  0
   -2.3930  108.7528   18.2489 C   0  0  0  0  0  0  0  0  0  0  0  0
    2.0282  105.0897   24.5085 O   0  0  0  0  0  0  0  0  0  0  0  0
    7.0734  109.9360   25.7304 N   0  0  0  0  0  0  0  0  0  0  0  0
    5.1035  109.0264   24.4467 C   0  0  0  0  0  0  0  0  0  0  0  0
    0.6288  105.4760   22.4424 O   0  0  0  0  0  0  0  0  0  0  0  0
    0.2205  106.4748   22.9971 C   0  0  0  0  0  0  0  0  0  0  0  0
   -0.1365  107.0766   23.2199 N   0  0  0  0  0  0  0  0  0  0  0  0
   -0.7295  109.1139   21.4209 O   0  0  0  0  0  0  0  0  0  0  0  0
    4.2063  108.1478   24.1734 C   0  0  0  0  0  0  0  0  0  0  0  0
  2  1  2  0
  5  4  1  0
  6  1  1  0
  6  4  1  0
  7  2  1  0
  9  3  1  0
  9  8  1  0
 10  8  1  0
 11  4  2  0
 12  7  1  0
 13  7  2  0
 15  5  1  0
 15 14  2  0
 16  3  1  0
 16 15  1  0
 17  3  1  0
 18  6  2  0
 18 13  1  0
M  END
>  <ID>  (1) 
conformer_0

$$$$
