
     RDKit          3D

 17 17  0  0  0  0  0  0  0  0999 V2000
    5.2981  109.1295   24.6656 C   0  0  0  0  0  0  0  0  0  0  0  0
    3.9856  107.2165   25.0713 C   0  0  0  0  0  0  0  0  0  0  0  0
   -0.9249  107.6207   21.6088 C   0  0  0  0  0  0  0  0  0  0  0  0
    2.6275  106.5377   24.2425 C   0  0  0  0  0  0  0  0  0  0  0  0
    4.7220  106.8947   26.1682 C   0  0  0  0  0  0  0  0  0  0  0  0
    7.4206  109.8418   25.9348 N   0  0  0  0  0  0  0  0  0  0  0  0
    1.6502  106.8901   24.1200 N   0  0  0  0  0  0  0  0  0  0  0  0
   -2.7920  108.9183   18.4660 C   0  0  0  0  0  0  0  0  0  0  0  0
    6.2836  108.9082   25.6050 C   0  0  0  0  0  0  0  0  0  0  0  0
   -1.4570  108.4673   19.5273 C   0  0  0  0  0  0  0  0  0  0  0  0
    0.4140  105.2468   22.5240 O   0  0  0  0  0  0  0  0  0  0  0  0
   -1.0219  109.4540   21.3905 O   0  0  0  0  0  0  0  0  0  0  0  0
    4.3153  108.3742   24.2465 C   0  0  0  0  0  0  0  0  0  0  0  0
   -1.5386  108.0128   19.8242 O   0  0  0  0  0  0  0  0  0  0  0  0
   -0.1831  107.1522   22.5838 N   0  0  0  0  0  0  0  0  0  0  0  0
    0.2709  106.4137   22.8207 C   0  0  0  0  0  0  0  0  0  0  0  0
    5.9468  107.7501   26.3343 C   0  0  0  0  0  0  0  0  0  0  0  0
  4  2  1  0
  5  2  1  0
  7  4  1  0
  9  1  2  0
  9  6  1  0
 10  8  1  0
 12  3  2  0
 13  1  1  0
 13  2  2  0
 14  3  1  0
 14 10  1  0
 15  3  1  0
 16  7  1  0
 16 11  2  0
 16 15  1  0
 17  5  2  0
 17  9  1  0
M  END
>  <ID>  (1) 
conformer_0

$$$$
