
     RDKit          3D

 17 17  0  0  0  0  0  0  0  0999 V2000
    3.9659  107.5040   24.6504 C   0  0  0  0  0  0  0  0  0  0  0  0
    5.5689  109.1938   24.6364 C   0  0  0  0  0  0  0  0  0  0  0  0
   -0.9063  106.9015   22.1140 C   0  0  0  0  0  0  0  0  0  0  0  0
    2.8813  106.6036   24.1215 C   0  0  0  0  0  0  0  0  0  0  0  0
    1.0496  107.0450   23.5454 N   0  0  0  0  0  0  0  0  0  0  0  0
    5.7130  107.7691   26.2673 C   0  0  0  0  0  0  0  0  0  0  0  0
    6.1661  109.0749   25.7809 C   0  0  0  0  0  0  0  0  0  0  0  0
    7.1059  109.8298   26.2668 N   0  0  0  0  0  0  0  0  0  0  0  0
   -2.8113  109.0488   18.6084 C   0  0  0  0  0  0  0  0  0  0  0  0
   -0.9769  108.0736   21.3484 C   0  0  0  0  0  0  0  0  0  0  0  0
    1.7453  105.1958   23.1828 O   0  0  0  0  0  0  0  0  0  0  0  0
   -1.2776  107.8296   19.9889 O   0  0  0  0  0  0  0  0  0  0  0  0
    4.5431  108.6345   24.0640 C   0  0  0  0  0  0  0  0  0  0  0  0
   -0.6323  109.0116   21.6213 O   0  0  0  0  0  0  0  0  0  0  0  0
   -1.8283  108.3864   19.3601 C   0  0  0  0  0  0  0  0  0  0  0  0
    4.5654  107.0485   25.9088 C   0  0  0  0  0  0  0  0  0  0  0  0
    0.9638  106.3044   23.1266 C   0  0  0  0  0  0  0  0  0  0  0  0
  4  1  1  0
  5  4  1  0
  7  2  2  0
  7  6  1  0
  8  7  1  0
 10  3  1  0
 12 10  1  0
 13  1  2  0
 13  2  1  0
 14 10  2  0
 15  9  1  0
 15 12  1  0
 16  1  1  0
 16  6  2  0
 17  3  1  0
 17  5  1  0
 17 11  2  0
M  END
>  <ID>  (1) 
conformer_0

$$$$
