
     RDKit          3D

 17 17  0  0  0  0  0  0  0  0999 V2000
    4.4457  108.4009   24.2068 C   0  0  0  0  0  0  0  0  0  0  0  0
    5.8298  107.6330   26.4569 C   0  0  0  0  0  0  0  0  0  0  0  0
   -0.9931  107.6179   21.8783 C   0  0  0  0  0  0  0  0  0  0  0  0
   -2.7085  108.8639   18.6964 C   0  0  0  0  0  0  0  0  0  0  0  0
    2.7578  106.6770   24.0151 C   0  0  0  0  0  0  0  0  0  0  0  0
   -1.5780  108.4791   19.5484 C   0  0  0  0  0  0  0  0  0  0  0  0
    6.1542  108.7529   25.8642 C   0  0  0  0  0  0  0  0  0  0  0  0
    2.1511  106.6901   24.3344 N   0  0  0  0  0  0  0  0  0  0  0  0
    5.5394  109.0012   24.7227 C   0  0  0  0  0  0  0  0  0  0  0  0
   -1.2403  107.9261   20.2569 O   0  0  0  0  0  0  0  0  0  0  0  0
    7.1530  109.7325   26.1414 N   0  0  0  0  0  0  0  0  0  0  0  0
   -0.5406  108.8474   22.3321 O   0  0  0  0  0  0  0  0  0  0  0  0
    1.6594  105.8590   22.4711 O   0  0  0  0  0  0  0  0  0  0  0  0
    3.9972  107.2953   24.8919 C   0  0  0  0  0  0  0  0  0  0  0  0
    4.5451  106.8940   26.1608 C   0  0  0  0  0  0  0  0  0  0  0  0
    0.3652  106.5710   22.9221 C   0  0  0  0  0  0  0  0  0  0  0  0
    0.2766  106.7670   23.4598 N   0  0  0  0  0  0  0  0  0  0  0  0
  6  4  1  0
  7  2  2  0
  8  5  1  0
  9  1  2  0
  9  7  1  0
 10  3  1  0
 10  6  1  0
 11  7  1  0
 12  3  1  0
 14  1  1  0
 14  5  1  0
 15  2  1  0
 15 14  2  0
 16  3  1  0
 16  5  1  0
 16 13  1  0
 17 16  1  0
M  END
>  <ID>  (1) 
conformer_0

$$$$
