
     RDKit          3D

 17 17  0  0  0  0  0  0  0  0999 V2000
    5.4732  109.4398   24.5715 C   0  0  0  0  0  0  0  0  0  0  0  0
    4.4962  108.6385   24.0811 C   0  0  0  0  0  0  0  0  0  0  0  0
    0.4005  106.2795   22.8922 C   0  0  0  0  0  0  0  0  0  0  0  0
    2.8566  106.7544   24.2518 C   0  0  0  0  0  0  0  0  0  0  0  0
    7.1157  110.1596   25.9775 N   0  0  0  0  0  0  0  0  0  0  0  0
    1.9241  106.8880   24.2403 N   0  0  0  0  0  0  0  0  0  0  0  0
    5.8699  108.2255   26.4171 C   0  0  0  0  0  0  0  0  0  0  0  0
    6.1368  109.3129   25.6054 C   0  0  0  0  0  0  0  0  0  0  0  0
    1.0634  105.1757   23.2224 O   0  0  0  0  0  0  0  0  0  0  0  0
   -0.7477  107.3530   21.6711 C   0  0  0  0  0  0  0  0  0  0  0  0
   -1.2371  107.8530   19.8924 O   0  0  0  0  0  0  0  0  0  0  0  0
   -2.9575  108.7393   18.7351 C   0  0  0  0  0  0  0  0  0  0  0  0
   -0.6183  109.0803   21.5948 O   0  0  0  0  0  0  0  0  0  0  0  0
    0.0389  107.0367   22.5157 N   0  0  0  0  0  0  0  0  0  0  0  0
    4.1253  107.5498   24.8626 C   0  0  0  0  0  0  0  0  0  0  0  0
   -1.6169  108.3106   19.8248 C   0  0  0  0  0  0  0  0  0  0  0  0
    4.8617  107.2755   26.0893 C   0  0  0  0  0  0  0  0  0  0  0  0
  2  1  2  0
  6  3  1  0
  6  4  1  0
  8  1  1  0
  8  5  1  0
  8  7  2  0
  9  3  2  0
 11 10  1  0
 13 10  1  0
 14  3  1  0
 14 10  1  0
 15  2  1  0
 15  4  1  0
 16 11  1  0
 16 12  1  0
 17  7  1  0
 17 15  2  0
M  END
>  <ID>  (1) 
conformer_0

$$$$
