
     RDKit          3D

 16 17  0  0  0  0  0  0  0  0999 V2000
    5.5353  107.8547   26.1627 C   0  0  0  0  0  0  0  0  0  0  0  0
    3.9924  107.7205   24.4918 C   0  0  0  0  0  0  0  0  0  0  0  0
   -0.8879  107.5776   21.5989 C   0  0  0  0  0  0  0  0  0  0  0  0
    2.3939  106.4858   24.1190 C   0  0  0  0  0  0  0  0  0  0  0  0
   -2.6652  109.1053   18.5724 C   0  0  0  0  0  0  0  0  0  0  0  0
   -1.3375  108.4163   19.4384 C   0  0  0  0  0  0  0  0  0  0  0  0
    4.6711  108.8099   24.2836 C   0  0  0  0  0  0  0  0  0  0  0  0
    5.5153  109.1843   25.4624 C   0  0  0  0  0  0  0  0  0  0  0  0
    1.4358  105.7118   22.9166 O   0  0  0  0  0  0  0  0  0  0  0  0
   -1.1514  107.3200   20.3939 O   0  0  0  0  0  0  0  0  0  0  0  0
    2.3918  106.3016   24.8323 N   0  0  0  0  0  0  0  0  0  0  0  0
    6.2649  110.1512   25.7120 N   0  0  0  0  0  0  0  0  0  0  0  0
    4.5219  106.9097   25.8759 C   0  0  0  0  0  0  0  0  0  0  0  0
   -1.0008  109.0464   21.0537 O   0  0  0  0  0  0  0  0  0  0  0  0
    0.0936  106.6285   22.7801 C   0  0  0  0  0  0  0  0  0  0  0  0
    0.6914  107.2663   23.6423 N   0  0  0  0  0  0  0  0  0  0  0  0
  4  2  1  0
  6  5  1  0
  7  2  2  0
  8  1  2  0
  8  7  1  0
  9  4  1  0
 10  3  1  0
 10  6  1  0
 11  4  1  0
 12  8  1  0
 13  1  1  0
 13  2  1  0
 14  3  1  0
 14  6  1  0
 15  3  1  0
 15  9  1  0
 16 15  1  0
M  END
>  <ID>  (1) 
conformer_0

$$$$
