
     RDKit          3D

 17 17  0  0  0  0  0  0  0  0999 V2000
    4.2630  108.3424   24.0922 C   0  0  0  0  0  0  0  0  0  0  0  0
    5.4212  109.0279   24.4012 C   0  0  0  0  0  0  0  0  0  0  0  0
    0.6059  106.5153   23.0471 C   0  0  0  0  0  0  0  0  0  0  0  0
   -2.6462  108.9017   18.6684 C   0  0  0  0  0  0  0  0  0  0  0  0
    2.7953  106.5678   24.2866 C   0  0  0  0  0  0  0  0  0  0  0  0
    6.3496  108.7974   25.2616 C   0  0  0  0  0  0  0  0  0  0  0  0
    1.7300  107.0856   24.0086 N   0  0  0  0  0  0  0  0  0  0  0  0
    1.0248  105.4853   22.7977 O   0  0  0  0  0  0  0  0  0  0  0  0
   -0.9219  109.3288   21.2197 O   0  0  0  0  0  0  0  0  0  0  0  0
    6.0082  108.1089   26.2423 C   0  0  0  0  0  0  0  0  0  0  0  0
   -0.8386  107.5109   21.7162 C   0  0  0  0  0  0  0  0  0  0  0  0
    7.4736  109.4794   25.3283 N   0  0  0  0  0  0  0  0  0  0  0  0
   -0.4033  107.3848   22.9491 N   0  0  0  0  0  0  0  0  0  0  0  0
    3.9948  107.2957   25.0400 C   0  0  0  0  0  0  0  0  0  0  0  0
   -1.7310  107.7289   20.3248 O   0  0  0  0  0  0  0  0  0  0  0  0
   -2.0130  108.3913   19.9382 C   0  0  0  0  0  0  0  0  0  0  0  0
    4.6289  107.1821   26.3519 C   0  0  0  0  0  0  0  0  0  0  0  0
  2  1  2  0
  6  2  1  0
  7  3  1  0
  7  5  1  0
  8  3  2  0
 10  6  2  0
 11  9  2  0
 12  6  1  0
 13  3  1  0
 13 11  1  0
 14  1  1  0
 14  5  1  0
 15 11  1  0
 16  4  1  0
 16 15  1  0
 17 10  1  0
 17 14  2  0
M  END
>  <ID>  (1) 
conformer_0

$$$$
