
     RDKit          3D

 15 16  0  0  0  0  0  0  0  0999 V2000
    4.1196  107.3649   24.9671 C   0  0  0  0  0  0  0  0  0  0  0  0
    5.9368  108.0944   26.2832 C   0  0  0  0  0  0  0  0  0  0  0  0
    0.2045  106.8101   22.8665 C   0  0  0  0  0  0  0  0  0  0  0  0
    1.6450  107.1530   23.8487 N   0  0  0  0  0  0  0  0  0  0  0  0
    2.7704  106.6558   24.2883 C   0  0  0  0  0  0  0  0  0  0  0  0
   -1.3949  108.4919   19.6457 C   0  0  0  0  0  0  0  0  0  0  0  0
    5.5591  109.2656   24.6297 C   0  0  0  0  0  0  0  0  0  0  0  0
   -0.8800  109.1845   21.2820 O   0  0  0  0  0  0  0  0  0  0  0  0
   -2.5274  108.9193   18.6104 C   0  0  0  0  0  0  0  0  0  0  0  0
    6.3261  108.7712   25.5643 C   0  0  0  0  0  0  0  0  0  0  0  0
    1.5329  105.6222   22.9338 O   0  0  0  0  0  0  0  0  0  0  0  0
    4.4800  108.4728   24.1271 C   0  0  0  0  0  0  0  0  0  0  0  0
   -0.9491  107.7324   21.8699 C   0  0  0  0  0  0  0  0  0  0  0  0
   -1.3091  107.8277   20.1396 O   0  0  0  0  0  0  0  0  0  0  0  0
    4.6950  107.1444   26.1446 C   0  0  0  0  0  0  0  0  0  0  0  0
  4  3  1  0
  5  1  1  0
  5  4  1  0
  8  6  1  0
  9  6  1  0
 10  2  2  0
 10  7  1  0
 11  3  2  0
 12  1  1  0
 12  7  2  0
 13  3  1  0
 13  8  1  0
 14  6  1  0
 14 13  1  0
 15  1  2  0
 15  2  1  0
M  END
>  <ID>  (1) 
conformer_0

$$$$
