
     RDKit          3D

 16 16  0  0  0  0  0  0  0  0999 V2000
    5.8551  107.7596   26.0887 C   0  0  0  0  0  0  0  0  0  0  0  0
    4.6168  107.0307   25.8477 C   0  0  0  0  0  0  0  0  0  0  0  0
   -0.8395  107.7500   21.5085 C   0  0  0  0  0  0  0  0  0  0  0  0
    2.6428  106.5553   24.3614 C   0  0  0  0  0  0  0  0  0  0  0  0
    4.1604  107.7999   24.5135 C   0  0  0  0  0  0  0  0  0  0  0  0
    6.2852  108.9213   25.1933 C   0  0  0  0  0  0  0  0  0  0  0  0
   -0.9993  108.3553   19.5089 C   0  0  0  0  0  0  0  0  0  0  0  0
    1.7354  106.6920   24.5542 N   0  0  0  0  0  0  0  0  0  0  0  0
   -1.1589  108.5355   20.3558 O   0  0  0  0  0  0  0  0  0  0  0  0
    0.4797  105.7886   22.4097 O   0  0  0  0  0  0  0  0  0  0  0  0
   -2.3382  108.8062   18.4852 C   0  0  0  0  0  0  0  0  0  0  0  0
    7.2601  109.7998   25.5186 N   0  0  0  0  0  0  0  0  0  0  0  0
   -0.5053  109.1457   22.3215 O   0  0  0  0  0  0  0  0  0  0  0  0
    4.9705  108.8485   24.3175 C   0  0  0  0  0  0  0  0  0  0  0  0
    0.1921  106.6897   23.1085 C   0  0  0  0  0  0  0  0  0  0  0  0
   -0.2446  107.1494   23.4633 N   0  0  0  0  0  0  0  0  0  0  0  0
  2  1  2  0
  5  2  1  0
  5  4  1  0
  6  1  1  0
  8  4  1  0
  9  3  1  0
  9  7  1  0
 11  7  1  0
 12  6  1  0
 13  3  1  0
 14  5  2  0
 14  6  1  0
 15  3  1  0
 15  8  1  0
 15 10  1  0
 16 15  1  0
M  END
>  <ID>  (1) 
conformer_0

$$$$
