
     RDKit          3D

 16 16  0  0  0  0  0  0  0  0999 V2000
    4.9579  108.8572   24.3245 C   0  0  0  0  0  0  0  0  0  0  0  0
    3.8035  107.0548   25.2743 C   0  0  0  0  0  0  0  0  0  0  0  0
   -0.7743  107.8824   21.6647 C   0  0  0  0  0  0  0  0  0  0  0  0
    4.6688  107.0114   26.3682 C   0  0  0  0  0  0  0  0  0  0  0  0
    5.8318  109.0574   25.3701 C   0  0  0  0  0  0  0  0  0  0  0  0
    2.4760  106.4958   24.3140 C   0  0  0  0  0  0  0  0  0  0  0  0
    6.7233  110.1171   25.4478 N   0  0  0  0  0  0  0  0  0  0  0  0
   -1.0571  107.9550   20.2599 O   0  0  0  0  0  0  0  0  0  0  0  0
    1.7877  106.5410   24.4396 N   0  0  0  0  0  0  0  0  0  0  0  0
    0.4175  105.2861   23.3105 O   0  0  0  0  0  0  0  0  0  0  0  0
   -1.3327  108.3694   19.4354 C   0  0  0  0  0  0  0  0  0  0  0  0
   -2.3759  108.8477   18.3340 C   0  0  0  0  0  0  0  0  0  0  0  0
    4.0459  108.0058   24.2430 C   0  0  0  0  0  0  0  0  0  0  0  0
    0.2616  106.6520   23.0118 C   0  0  0  0  0  0  0  0  0  0  0  0
    0.2965  107.4737   23.1296 N   0  0  0  0  0  0  0  0  0  0  0  0
    5.6906  108.0624   26.3062 C   0  0  0  0  0  0  0  0  0  0  0  0
  4  2  1  0
  5  1  2  0
  6  2  1  0
  7  5  1  0
  8  3  1  0
  9  6  1  0
 11  8  1  0
 12 11  1  0
 13  1  1  0
 13  2  2  0
 14  9  1  0
 14 10  1  0
 15  3  1  0
 15 14  1  0
 16  4  2  0
 16  5  1  0
M  END
>  <ID>  (1) 
conformer_0

$$$$
