
     RDKit          3D

 15 15  0  0  0  0  0  0  0  0999 V2000
    5.9195  107.6759   26.2416 C   0  0  0  0  0  0  0  0  0  0  0  0
   -0.8244  107.6657   21.9622 C   0  0  0  0  0  0  0  0  0  0  0  0
    4.3050  108.2079   24.3882 C   0  0  0  0  0  0  0  0  0  0  0  0
    2.7288  106.5559   24.2327 C   0  0  0  0  0  0  0  0  0  0  0  0
   -2.4081  108.8910   18.4696 C   0  0  0  0  0  0  0  0  0  0  0  0
    6.2576  108.8854   25.5939 C   0  0  0  0  0  0  0  0  0  0  0  0
    1.7495  106.9353   24.2420 N   0  0  0  0  0  0  0  0  0  0  0  0
    0.9394  105.3862   22.9795 O   0  0  0  0  0  0  0  0  0  0  0  0
   -1.5178  108.3189   19.7129 C   0  0  0  0  0  0  0  0  0  0  0  0
   -1.5574  107.4911   20.0543 O   0  0  0  0  0  0  0  0  0  0  0  0
    5.2552  109.1170   24.5137 C   0  0  0  0  0  0  0  0  0  0  0  0
    7.2687  109.7751   25.8956 N   0  0  0  0  0  0  0  0  0  0  0  0
    4.5584  107.1081   25.6918 C   0  0  0  0  0  0  0  0  0  0  0  0
    0.3623  106.8195   23.0161 C   0  0  0  0  0  0  0  0  0  0  0  0
   -0.8759  108.6968   21.2862 O   0  0  0  0  0  0  0  0  0  0  0  0
  4  3  1  0
  6  1  2  0
  7  4  1  0
  9  5  1  0
 10  9  2  0
 11  3  2  0
 11  6  1  0
 12  6  1  0
 13  1  1  0
 13  3  1  0
 14  2  1  0
 14  7  1  0
 14  8  2  0
 15  2  1  0
 15  9  1  0
M  END
>  <ID>  (1) 
conformer_0

$$$$
