
     RDKit          3D

 18 18  0  0  0  0  0  0  0  0999 V2000
    4.3208  108.2742   24.2387 C   0  0  0  0  0  0  0  0  0  0  0  0
    6.4412  108.0111   26.0101 C   0  0  0  0  0  0  0  0  0  0  0  0
   -0.8942  108.0109   21.3390 C   0  0  0  0  0  0  0  0  0  0  0  0
    2.9768  106.8173   24.4012 C   0  0  0  0  0  0  0  0  0  0  0  0
   -1.2603  108.5362   19.2492 C   0  0  0  0  0  0  0  0  0  0  0  0
    0.8988  105.1499   23.1691 O   0  0  0  0  0  0  0  0  0  0  0  0
    1.7056  106.8199   24.6209 N   0  0  0  0  0  0  0  0  0  0  0  0
    6.2172  109.0385   25.3421 C   0  0  0  0  0  0  0  0  0  0  0  0
    5.1743  109.2545   24.4578 C   0  0  0  0  0  0  0  0  0  0  0  0
   -1.3346  107.8687   20.1193 O   0  0  0  0  0  0  0  0  0  0  0  0
    6.9905  110.0248   25.5364 N   0  0  0  0  0  0  0  0  0  0  0  0
   -0.5506  109.0172   21.9292 O   0  0  0  0  0  0  0  0  0  0  0  0
   -2.7123  109.0851   18.6685 C   0  0  0  0  0  0  0  0  0  0  0  0
    5.4550  106.9715   25.9832 C   0  0  0  0  0  0  0  0  0  0  0  0
   -0.1787  107.0943   23.4519 N   0  0  0  0  0  0  0  0  0  0  0  0
   -0.4665  106.7754   22.4918 C   0  0  0  0  0  0  0  0  0  0  0  0
    0.9894  106.2445   23.7056 C   0  0  0  0  0  0  0  0  0  0  0  0
    4.2716  107.1688   25.1830 C   0  0  0  0  0  0  0  0  0  0  0  0
  7  4  1  0
  8  2  2  0
  9  1  2  0
  9  8  1  0
 10  3  1  0
 10  5  1  0
 11  8  1  0
 12  3  2  0
 13  5  1  0
 14  2  1  0
 16  3  1  0
 16 15  1  0
 17  6  2  0
 17  7  1  0
 17 15  1  0
 18  1  1  0
 18  4  1  0
 18 14  2  0
M  END
>  <ID>  (1) 
conformer_0

$$$$
