
     RDKit          3D

 18 18  0  0  0  0  0  0  0  0999 V2000
    6.3398  108.0041   26.1706 C   0  0  0  0  0  0  0  0  0  0  0  0
    5.1721  107.0984   26.1594 C   0  0  0  0  0  0  0  0  0  0  0  0
   -1.1237  106.6976   21.8771 C   0  0  0  0  0  0  0  0  0  0  0  0
    2.9614  106.6648   24.5122 C   0  0  0  0  0  0  0  0  0  0  0  0
    6.2759  109.1465   25.4005 C   0  0  0  0  0  0  0  0  0  0  0  0
    4.1924  107.3082   25.1750 C   0  0  0  0  0  0  0  0  0  0  0  0
   -1.2003  108.2205   20.1133 O   0  0  0  0  0  0  0  0  0  0  0  0
    1.9491  106.7701   24.9162 N   0  0  0  0  0  0  0  0  0  0  0  0
   -2.4763  108.9025   18.3213 C   0  0  0  0  0  0  0  0  0  0  0  0
   -0.8426  108.0379   21.5412 C   0  0  0  0  0  0  0  0  0  0  0  0
   -0.5880  109.0960   22.3183 O   0  0  0  0  0  0  0  0  0  0  0  0
    7.2028  109.9454   25.5698 N   0  0  0  0  0  0  0  0  0  0  0  0
    1.4336  105.5339   23.3113 O   0  0  0  0  0  0  0  0  0  0  0  0
    5.3527  109.2710   24.5718 C   0  0  0  0  0  0  0  0  0  0  0  0
    0.3519  107.1208   23.2050 N   0  0  0  0  0  0  0  0  0  0  0  0
   -1.5484  108.4479   19.2735 C   0  0  0  0  0  0  0  0  0  0  0  0
    0.8740  106.5365   23.4426 C   0  0  0  0  0  0  0  0  0  0  0  0
    4.3913  108.3741   24.2423 C   0  0  0  0  0  0  0  0  0  0  0  0
  2  1  2  0
  5  1  1  0
  6  2  1  0
  6  4  1  0
  8  4  1  0
 10  3  1  0
 10  7  1  0
 11 10  2  0
 12  5  1  0
 14  5  2  0
 16  7  1  0
 16  9  1  0
 17  3  1  0
 17  8  1  0
 17 13  1  0
 17 15  1  0
 18  6  2  0
 18 14  1  0
M  END
>  <ID>  (1) 
conformer_0

$$$$
