
     RDKit          3D

 17 17  0  0  0  0  0  0  0  0999 V2000
    3.9530  107.4790   24.7085 C   0  0  0  0  0  0  0  0  0  0  0  0
    4.7351  107.1257   25.8569 C   0  0  0  0  0  0  0  0  0  0  0  0
   -0.8998  107.4528   21.8730 C   0  0  0  0  0  0  0  0  0  0  0  0
    2.6509  106.7698   24.1861 C   0  0  0  0  0  0  0  0  0  0  0  0
    4.4602  108.5826   24.0615 C   0  0  0  0  0  0  0  0  0  0  0  0
   -2.2907  108.8447   18.5459 C   0  0  0  0  0  0  0  0  0  0  0  0
    7.3275  109.8924   25.8160 N   0  0  0  0  0  0  0  0  0  0  0  0
    6.3012  109.0487   25.4494 C   0  0  0  0  0  0  0  0  0  0  0  0
    1.6687  106.9406   24.6361 N   0  0  0  0  0  0  0  0  0  0  0  0
   -1.1315  108.3729   19.6430 C   0  0  0  0  0  0  0  0  0  0  0  0
   -1.1346  107.0407   20.6745 O   0  0  0  0  0  0  0  0  0  0  0  0
    1.3950  105.3797   23.3613 O   0  0  0  0  0  0  0  0  0  0  0  0
    6.0199  107.8677   26.0733 C   0  0  0  0  0  0  0  0  0  0  0  0
   -1.1228  109.1158   20.6594 O   0  0  0  0  0  0  0  0  0  0  0  0
    0.1611  107.4013   22.9706 N   0  0  0  0  0  0  0  0  0  0  0  0
    0.3902  106.4317   23.2190 C   0  0  0  0  0  0  0  0  0  0  0  0
    5.4649  109.3414   24.5099 C   0  0  0  0  0  0  0  0  0  0  0  0
  2  1  2  0
  4  1  1  0
  5  1  1  0
  8  7  1  0
  9  4  1  0
 10  6  1  0
 11  3  1  0
 11 10  1  0
 13  2  1  0
 13  8  2  0
 14 10  1  0
 15  3  1  0
 16  9  1  0
 16 12  1  0
 16 15  1  0
 17  5  2  0
 17  8  1  0
M  END
>  <ID>  (1) 
conformer_0

$$$$
