
     RDKit          3D

 17 18  0  0  0  0  0  0  0  0999 V2000
    4.9093  106.9732   26.2564 C   0  0  0  0  0  0  0  0  0  0  0  0
    6.0382  107.9750   26.2940 C   0  0  0  0  0  0  0  0  0  0  0  0
    0.4594  106.3214   22.8010 C   0  0  0  0  0  0  0  0  0  0  0  0
    2.5839  106.4941   24.1165 C   0  0  0  0  0  0  0  0  0  0  0  0
    4.0285  107.1399   25.2416 C   0  0  0  0  0  0  0  0  0  0  0  0
    1.8921  105.3786   22.9229 O   0  0  0  0  0  0  0  0  0  0  0  0
    1.2144  107.0123   23.9291 N   0  0  0  0  0  0  0  0  0  0  0  0
    6.0469  109.0992   25.5443 C   0  0  0  0  0  0  0  0  0  0  0  0
    6.9698  110.1146   25.7181 N   0  0  0  0  0  0  0  0  0  0  0  0
   -0.7261  109.3327   21.9181 O   0  0  0  0  0  0  0  0  0  0  0  0
   -2.1633  108.7848   18.4990 C   0  0  0  0  0  0  0  0  0  0  0  0
   -0.6993  107.6742   21.7090 C   0  0  0  0  0  0  0  0  0  0  0  0
    4.2227  108.1662   24.3450 C   0  0  0  0  0  0  0  0  0  0  0  0
   -0.3522  107.1817   22.0656 N   0  0  0  0  0  0  0  0  0  0  0  0
   -1.4427  108.1306   20.1524 O   0  0  0  0  0  0  0  0  0  0  0  0
   -1.4302  108.3351   19.6491 C   0  0  0  0  0  0  0  0  0  0  0  0
    5.1324  109.0755   24.5413 C   0  0  0  0  0  0  0  0  0  0  0  0
  2  1  2  0
  5  1  1  0
  5  4  1  0
  6  3  1  0
  6  4  1  0
  7  3  1  0
  7  4  1  0
  8  2  1  0
  9  8  1  0
 12 10  2  0
 13  5  2  0
 14  3  1  0
 14 12  1  0
 15 12  1  0
 16 11  1  0
 16 15  1  0
 17  8  2  0
 17 13  1  0
M  END
>  <ID>  (1) 
conformer_0

$$$$
