
     RDKit          3D

 17 17  0  0  0  0  0  0  0  0999 V2000
    6.1487  107.8856   26.1035 C   0  0  0  0  0  0  0  0  0  0  0  0
    4.8465  107.0382   26.0319 C   0  0  0  0  0  0  0  0  0  0  0  0
    0.3991  106.4056   23.1535 C   0  0  0  0  0  0  0  0  0  0  0  0
   -2.4378  108.8053   18.5541 C   0  0  0  0  0  0  0  0  0  0  0  0
    2.7161  106.6451   24.1583 C   0  0  0  0  0  0  0  0  0  0  0  0
    5.4154  109.2319   24.5237 C   0  0  0  0  0  0  0  0  0  0  0  0
    7.1520  110.0401   25.9089 N   0  0  0  0  0  0  0  0  0  0  0  0
    6.2305  109.1059   25.5330 C   0  0  0  0  0  0  0  0  0  0  0  0
   -0.5900  109.0943   22.1057 O   0  0  0  0  0  0  0  0  0  0  0  0
    1.9137  105.2752   23.5724 O   0  0  0  0  0  0  0  0  0  0  0  0
    1.5071  107.0746   23.9288 N   0  0  0  0  0  0  0  0  0  0  0  0
   -1.3476  108.3114   19.6798 C   0  0  0  0  0  0  0  0  0  0  0  0
    4.0931  107.3761   24.9414 C   0  0  0  0  0  0  0  0  0  0  0  0
   -0.7699  106.6861   22.9182 N   0  0  0  0  0  0  0  0  0  0  0  0
   -1.0374  108.2112   20.1987 O   0  0  0  0  0  0  0  0  0  0  0  0
   -0.6432  107.6310   21.9882 C   0  0  0  0  0  0  0  0  0  0  0  0
    4.4261  108.4998   24.1156 C   0  0  0  0  0  0  0  0  0  0  0  0
  2  1  2  0
  8  1  1  0
  8  6  2  0
  8  7  1  0
 10  5  2  0
 11  3  1  0
 11  5  1  0
 12  4  1  0
 13  2  1  0
 13  5  1  0
 14  3  1  0
 15 12  1  0
 16  9  2  0
 16 14  1  0
 16 15  1  0
 17  6  1  0
 17 13  2  0
M  END
>  <ID>  (1) 
conformer_0

$$$$
