
     RDKit          3D

 16 16  0  0  0  0  0  0  0  0999 V2000
    4.5765  106.8275   25.8873 C   0  0  0  0  0  0  0  0  0  0  0  0
    5.8493  107.5609   26.1817 C   0  0  0  0  0  0  0  0  0  0  0  0
   -0.8900  107.6852   21.6573 C   0  0  0  0  0  0  0  0  0  0  0  0
   -1.4251  108.4187   19.3809 C   0  0  0  0  0  0  0  0  0  0  0  0
    2.5174  106.5035   24.3689 C   0  0  0  0  0  0  0  0  0  0  0  0
    5.9137  108.9028   25.5007 C   0  0  0  0  0  0  0  0  0  0  0  0
    1.9873  106.9559   24.5521 N   0  0  0  0  0  0  0  0  0  0  0  0
    4.1087  107.6975   24.7031 C   0  0  0  0  0  0  0  0  0  0  0  0
   -2.6318  108.9728   18.2345 C   0  0  0  0  0  0  0  0  0  0  0  0
   -1.4360  108.1966   20.0765 O   0  0  0  0  0  0  0  0  0  0  0  0
    1.3465  105.3153   23.4972 O   0  0  0  0  0  0  0  0  0  0  0  0
    6.7966  109.8445   25.8065 N   0  0  0  0  0  0  0  0  0  0  0  0
    0.1964  106.6024   23.0492 C   0  0  0  0  0  0  0  0  0  0  0  0
    4.7893  108.8533   24.4141 C   0  0  0  0  0  0  0  0  0  0  0  0
   -0.4060  106.8031   21.2764 O   0  0  0  0  0  0  0  0  0  0  0  0
    0.3534  107.3678   23.3524 N   0  0  0  0  0  0  0  0  0  0  0  0
  2  1  2  0
  6  2  1  0
  7  5  1  0
  8  1  1  0
  8  5  1  0
  9  4  1  0
 10  3  1  0
 10  4  1  0
 11  5  1  0
 12  6  1  0
 13 11  1  0
 14  6  2  0
 14  8  1  0
 15  3  1  0
 15 13  1  0
 16 13  1  0
M  END
>  <ID>  (1) 
conformer_0

$$$$
