
     RDKit          3D

 17 17  0  0  0  0  0  0  0  0999 V2000
    5.4117  108.9621   24.4797 C   0  0  0  0  0  0  0  0  0  0  0  0
    4.3129  108.2788   24.1045 C   0  0  0  0  0  0  0  0  0  0  0  0
   -0.9512  107.8210   21.5701 C   0  0  0  0  0  0  0  0  0  0  0  0
    2.5583  106.5454   24.2368 C   0  0  0  0  0  0  0  0  0  0  0  0
    4.6136  106.9184   26.1615 C   0  0  0  0  0  0  0  0  0  0  0  0
    1.8158  106.9847   24.2974 N   0  0  0  0  0  0  0  0  0  0  0  0
   -1.2462  108.0056   20.1229 O   0  0  0  0  0  0  0  0  0  0  0  0
   -1.3352  108.4077   19.2708 C   0  0  0  0  0  0  0  0  0  0  0  0
    7.2341  109.5738   25.8648 N   0  0  0  0  0  0  0  0  0  0  0  0
    6.1790  108.7470   25.4999 C   0  0  0  0  0  0  0  0  0  0  0  0
   -0.5035  109.0710   22.3330 O   0  0  0  0  0  0  0  0  0  0  0  0
    1.3426  105.4754   22.9696 O   0  0  0  0  0  0  0  0  0  0  0  0
   -2.7420  109.0731   18.4849 C   0  0  0  0  0  0  0  0  0  0  0  0
    5.8256  107.8306   26.3293 C   0  0  0  0  0  0  0  0  0  0  0  0
    0.1566  106.8816   22.7535 C   0  0  0  0  0  0  0  0  0  0  0  0
    0.0891  107.1176   23.0550 N   0  0  0  0  0  0  0  0  0  0  0  0
    3.9482  107.1923   24.9424 C   0  0  0  0  0  0  0  0  0  0  0  0
  2  1  2  0
  6  4  1  0
  7  3  1  0
  8  7  1  0
 10  1  1  0
 10  9  1  0
 11  3  1  0
 12  4  1  0
 13  8  1  0
 14  5  1  0
 14 10  2  0
 15  3  1  0
 15 12  1  0
 16 15  1  0
 17  2  1  0
 17  4  1  0
 17  5  2  0
M  END
>  <ID>  (1) 
conformer_0

$$$$
