
     RDKit          3D

 19 20  0  0  0  0  0  0  0  0999 V2000
    6.5805  108.3659   25.5769 C   0  0  0  0  0  0  0  0  0  0  0  0
    5.7872  107.2480   26.0659 C   0  0  0  0  0  0  0  0  0  0  0  0
   -0.9687  108.0618   21.1495 C   0  0  0  0  0  0  0  0  0  0  0  0
    3.0239  106.6347   24.7146 C   0  0  0  0  0  0  0  0  0  0  0  0
   -1.6720  108.5846   19.1324 C   0  0  0  0  0  0  0  0  0  0  0  0
    1.8938  106.8237   24.8214 N   0  0  0  0  0  0  0  0  0  0  0  0
    5.8461  109.2336   24.8127 C   0  0  0  0  0  0  0  0  0  0  0  0
    4.4554  107.1522   25.8359 C   0  0  0  0  0  0  0  0  0  0  0  0
   -1.2845  108.0610   20.0666 O   0  0  0  0  0  0  0  0  0  0  0  0
    0.1926  105.6436   22.1660 O   0  0  0  0  0  0  0  0  0  0  0  0
   -1.0945  109.0758   22.1017 O   0  0  0  0  0  0  0  0  0  0  0  0
    6.4446  110.2920   24.4509 N   0  0  0  0  0  0  0  0  0  0  0  0
   -2.9195  109.0698   18.3969 C   0  0  0  0  0  0  0  0  0  0  0  0
   -0.3237  107.0958   22.5088 C   0  0  0  0  0  0  0  0  0  0  0  0
    4.7570  109.0088   24.2770 C   0  0  0  0  0  0  0  0  0  0  0  0
    4.1526  107.8069   24.5076 C   0  0  0  0  0  0  0  0  0  0  0  0
    0.1356  107.2095   23.3660 N   0  0  0  0  0  0  0  0  0  0  0  0
    2.1810  105.7691   22.9900 O   0  0  0  0  0  0  0  0  0  0  0  0
    1.1688  106.4544   23.4720 C   0  0  0  0  0  0  0  0  0  0  0  0
  2  1  2  0
  6  4  1  0
  7  1  1  0
  8  2  1  0
  8  4  1  0
  9  3  1  0
  9  5  1  0
 11  3  2  0
 12  7  1  0
 13  5  1  0
 14  3  1  0
 14 10  2  0
 15  7  2  0
 16  4  1  0
 16  8  2  0
 16 15  1  0
 17 14  1  0
 19  6  1  0
 19 17  1  0
 19 18  2  0
M  END
>  <ID>  (1) 
conformer_0

$$$$
