
     RDKit          3D

 16 16  0  0  0  0  0  0  0  0999 V2000
    4.2593  108.2087   24.6141 C   0  0  0  0  0  0  0  0  0  0  0  0
    4.4944  107.1998   25.7157 C   0  0  0  0  0  0  0  0  0  0  0  0
   -0.6047  107.5715   21.7315 C   0  0  0  0  0  0  0  0  0  0  0  0
    0.4993  106.3502   22.9768 C   0  0  0  0  0  0  0  0  0  0  0  0
    1.6975  106.9266   24.1143 N   0  0  0  0  0  0  0  0  0  0  0  0
   -2.4505  108.8714   18.4501 C   0  0  0  0  0  0  0  0  0  0  0  0
    5.2748  109.1178   24.5534 C   0  0  0  0  0  0  0  0  0  0  0  0
    2.6589  106.8368   24.2583 C   0  0  0  0  0  0  0  0  0  0  0  0
    0.2818  105.2870   22.4213 O   0  0  0  0  0  0  0  0  0  0  0  0
    6.3772  109.0677   25.6996 C   0  0  0  0  0  0  0  0  0  0  0  0
    7.2981  109.8341   26.0452 N   0  0  0  0  0  0  0  0  0  0  0  0
   -0.6864  109.4198   21.6825 O   0  0  0  0  0  0  0  0  0  0  0  0
    5.9860  107.6834   25.9713 C   0  0  0  0  0  0  0  0  0  0  0  0
   -1.4502  107.9490   19.9516 O   0  0  0  0  0  0  0  0  0  0  0  0
   -0.2187  107.2979   22.5956 N   0  0  0  0  0  0  0  0  0  0  0  0
   -1.4932  108.3881   19.6592 C   0  0  0  0  0  0  0  0  0  0  0  0
  2  1  2  0
  5  4  1  0
  7  1  1  0
  8  1  1  0
  8  5  1  0
  9  4  2  0
 10  7  1  0
 11 10  1  0
 12  3  2  0
 13  2  1  0
 13 10  2  0
 14  3  1  0
 15  3  1  0
 15  4  1  0
 16  6  1  0
 16 14  1  0
M  END
>  <ID>  (1) 
conformer_0

$$$$
