
     RDKit          3D

 17 18  0  0  0  0  0  0  0  0999 V2000
    4.2307  107.1585   25.3535 C   0  0  0  0  0  0  0  0  0  0  0  0
    5.2997  107.3852   26.2654 C   0  0  0  0  0  0  0  0  0  0  0  0
   -0.8070  107.3566   21.5607 C   0  0  0  0  0  0  0  0  0  0  0  0
   -1.3854  108.4940   19.6520 C   0  0  0  0  0  0  0  0  0  0  0  0
    4.2780  108.1408   24.2997 C   0  0  0  0  0  0  0  0  0  0  0  0
    2.4154  106.4707   24.2651 C   0  0  0  0  0  0  0  0  0  0  0  0
    1.5587  105.1972   23.3038 O   0  0  0  0  0  0  0  0  0  0  0  0
   -1.2542  107.6710   20.1564 O   0  0  0  0  0  0  0  0  0  0  0  0
    0.8850  106.7988   24.0766 N   0  0  0  0  0  0  0  0  0  0  0  0
    6.0855  109.2987   25.0733 C   0  0  0  0  0  0  0  0  0  0  0  0
   -2.3438  108.7789   18.3991 C   0  0  0  0  0  0  0  0  0  0  0  0
    6.8123  110.3320   25.1715 N   0  0  0  0  0  0  0  0  0  0  0  0
    5.0436  109.1097   24.2686 C   0  0  0  0  0  0  0  0  0  0  0  0
    6.2598  108.3697   26.0398 C   0  0  0  0  0  0  0  0  0  0  0  0
    3.0013  107.2815   23.7429 C   0  0  0  0  0  0  0  0  0  0  0  0
    0.1342  106.2830   22.9251 C   0  0  0  0  0  0  0  0  0  0  0  0
   -0.5753  108.9570   21.3674 O   0  0  0  0  0  0  0  0  0  0  0  0
  2  1  2  0
  5  1  1  0
  7  6  1  0
  8  3  1  0
  8  4  1  0
  9  6  1  0
 11  4  1  0
 12 10  1  0
 13  5  2  0
 13 10  1  0
 14  2  1  0
 14 10  2  0
 15  5  1  0
 15  6  1  0
 16  3  1  0
 16  7  1  0
 16  9  1  0
 17  3  2  0
M  END
>  <ID>  (1) 
conformer_0

$$$$
