
     RDKit          3D

 17 18  0  0  0  0  0  0  0  0999 V2000
    4.3430  108.2906   24.3084 C   0  0  0  0  0  0  0  0  0  0  0  0
    5.3194  109.0238   24.6703 C   0  0  0  0  0  0  0  0  0  0  0  0
   -0.8400  107.6091   21.3650 C   0  0  0  0  0  0  0  0  0  0  0  0
    2.6223  106.5525   24.3058 C   0  0  0  0  0  0  0  0  0  0  0  0
    6.2133  107.6756   26.2671 C   0  0  0  0  0  0  0  0  0  0  0  0
   -1.5190  108.5365   19.3258 C   0  0  0  0  0  0  0  0  0  0  0  0
   -3.0066  109.0667   18.5505 C   0  0  0  0  0  0  0  0  0  0  0  0
    2.5121  105.5579   23.5501 O   0  0  0  0  0  0  0  0  0  0  0  0
    0.3647  107.1510   23.4336 N   0  0  0  0  0  0  0  0  0  0  0  0
    6.2943  108.8210   25.6692 C   0  0  0  0  0  0  0  0  0  0  0  0
   -1.2446  108.9577   20.9934 O   0  0  0  0  0  0  0  0  0  0  0  0
    7.1747  109.8577   25.9935 N   0  0  0  0  0  0  0  0  0  0  0  0
    5.0082  106.7883   26.1800 C   0  0  0  0  0  0  0  0  0  0  0  0
    4.1040  107.1268   25.1524 C   0  0  0  0  0  0  0  0  0  0  0  0
    0.0208  106.6643   23.0920 C   0  0  0  0  0  0  0  0  0  0  0  0
    1.8556  106.9175   24.8074 N   0  0  0  0  0  0  0  0  0  0  0  0
   -1.4181  107.5406   19.9191 O   0  0  0  0  0  0  0  0  0  0  0  0
  2  1  2  0
  7  6  1  0
  8  4  1  0
 10  2  1  0
 10  5  2  0
 11  3  1  0
 11  6  1  0
 12 10  1  0
 13  5  1  0
 14  1  1  0
 14  4  1  0
 14 13  2  0
 15  3  1  0
 15  4  1  0
 15  9  1  0
 16  4  1  0
 17  3  1  0
 17  6  1  0
M  END
>  <ID>  (1) 
conformer_0

$$$$
