
     RDKit          3D

 17 17  0  0  0  0  0  0  0  0999 V2000
    4.1370  108.1198   24.2691 C   0  0  0  0  0  0  0  0  0  0  0  0
    6.2206  108.1580   26.1277 C   0  0  0  0  0  0  0  0  0  0  0  0
   -1.0354  107.8504   21.4145 C   0  0  0  0  0  0  0  0  0  0  0  0
    2.5491  106.5533   24.1645 C   0  0  0  0  0  0  0  0  0  0  0  0
    5.0104  109.0618   24.2484 C   0  0  0  0  0  0  0  0  0  0  0  0
    2.0534  106.8017   24.5496 N   0  0  0  0  0  0  0  0  0  0  0  0
    5.8771  109.1528   25.3069 C   0  0  0  0  0  0  0  0  0  0  0  0
    1.1892  105.2751   23.1892 O   0  0  0  0  0  0  0  0  0  0  0  0
   -1.6718  108.5410   19.3561 C   0  0  0  0  0  0  0  0  0  0  0  0
   -1.4468  107.7544   19.8231 O   0  0  0  0  0  0  0  0  0  0  0  0
    6.6131  110.1915   25.4755 N   0  0  0  0  0  0  0  0  0  0  0  0
    4.1035  107.1516   25.3886 C   0  0  0  0  0  0  0  0  0  0  0  0
    0.3620  106.6496   22.8108 C   0  0  0  0  0  0  0  0  0  0  0  0
   -0.1550  106.6708   21.5347 O   0  0  0  0  0  0  0  0  0  0  0  0
    0.4466  107.3196   23.2878 N   0  0  0  0  0  0  0  0  0  0  0  0
   -0.6194  109.2268   21.2555 O   0  0  0  0  0  0  0  0  0  0  0  0
    5.0642  107.2211   26.3507 C   0  0  0  0  0  0  0  0  0  0  0  0
  5  1  2  0
  6  4  1  0
  7  2  2  0
  7  5  1  0
  8  4  1  0
 10  3  1  0
 10  9  1  0
 11  7  1  0
 12  1  1  0
 12  4  1  0
 13  8  1  0
 14  3  1  0
 14 13  1  0
 15 13  1  0
 16  3  1  0
 17  2  1  0
 17 12  2  0
M  END
>  <ID>  (1) 
conformer_0

$$$$
