
     RDKit          3D

 18 18  0  0  0  0  0  0  0  0999 V2000
    4.3324  107.1813   25.2083 C   0  0  0  0  0  0  0  0  0  0  0  0
    6.0321  108.4546   26.4239 C   0  0  0  0  0  0  0  0  0  0  0  0
   -1.0017  107.5107   21.7193 C   0  0  0  0  0  0  0  0  0  0  0  0
    2.7692  106.6046   24.2844 C   0  0  0  0  0  0  0  0  0  0  0  0
   -1.3040  108.4050   19.5605 C   0  0  0  0  0  0  0  0  0  0  0  0
    6.0398  109.4108   25.5054 C   0  0  0  0  0  0  0  0  0  0  0  0
    1.8667  106.9585   24.5458 N   0  0  0  0  0  0  0  0  0  0  0  0
   -2.4655  109.0469   18.5682 C   0  0  0  0  0  0  0  0  0  0  0  0
    5.3636  109.1178   24.3495 C   0  0  0  0  0  0  0  0  0  0  0  0
   -1.4808  107.5263   19.9108 O   0  0  0  0  0  0  0  0  0  0  0  0
    6.8265  110.3469   25.7197 N   0  0  0  0  0  0  0  0  0  0  0  0
    1.9022  105.4131   23.1750 O   0  0  0  0  0  0  0  0  0  0  0  0
   -0.8757  109.0829   21.6107 O   0  0  0  0  0  0  0  0  0  0  0  0
   -0.3850  106.0359   21.7656 O   0  0  0  0  0  0  0  0  0  0  0  0
    4.3565  108.2306   24.2128 C   0  0  0  0  0  0  0  0  0  0  0  0
    0.4215  106.4823   22.9935 C   0  0  0  0  0  0  0  0  0  0  0  0
    0.2071  107.0756   23.2918 N   0  0  0  0  0  0  0  0  0  0  0  0
    5.0180  107.4457   26.4472 C   0  0  0  0  0  0  0  0  0  0  0  0
  4  1  1  0
  6  2  1  0
  7  4  1  0
  8  5  1  0
  9  6  2  0
 10  3  1  0
 10  5  1  0
 11  6  1  0
 12  4  1  0
 13  3  1  0
 14  3  1  0
 15  1  2  0
 15  9  1  0
 16 12  1  0
 16 14  1  0
 17 16  1  0
 18  1  1  0
 18  2  2  0
M  END
>  <ID>  (1) 
conformer_0

$$$$
