
     RDKit          3D

 17 17  0  0  0  0  0  0  0  0999 V2000
    5.5887  108.0892   26.5466 C   0  0  0  0  0  0  0  0  0  0  0  0
    4.2956  108.2523   24.1556 C   0  0  0  0  0  0  0  0  0  0  0  0
    0.1656  106.2812   22.7486 C   0  0  0  0  0  0  0  0  0  0  0  0
    5.1616  109.0753   24.5526 C   0  0  0  0  0  0  0  0  0  0  0  0
   -0.7744  107.3401   21.5306 C   0  0  0  0  0  0  0  0  0  0  0  0
    2.5764  106.4765   24.2363 C   0  0  0  0  0  0  0  0  0  0  0  0
    6.9302  109.9941   25.9509 N   0  0  0  0  0  0  0  0  0  0  0  0
    2.0689  105.4561   23.3545 O   0  0  0  0  0  0  0  0  0  0  0  0
   -0.1632  107.1327   22.9421 N   0  0  0  0  0  0  0  0  0  0  0  0
    5.9205  109.0693   25.6701 C   0  0  0  0  0  0  0  0  0  0  0  0
   -0.9644  109.5509   21.0677 O   0  0  0  0  0  0  0  0  0  0  0  0
   -2.5271  108.7918   18.6434 C   0  0  0  0  0  0  0  0  0  0  0  0
    4.5977  107.0093   26.2438 C   0  0  0  0  0  0  0  0  0  0  0  0
   -1.2086  107.6378   20.3120 O   0  0  0  0  0  0  0  0  0  0  0  0
    1.6193  106.9362   24.2268 N   0  0  0  0  0  0  0  0  0  0  0  0
   -1.0994  108.4847   19.7286 C   0  0  0  0  0  0  0  0  0  0  0  0
    3.9901  107.1662   25.0468 C   0  0  0  0  0  0  0  0  0  0  0  0
  4  2  2  0
  6  3  1  0
  8  6  1  0
  9  3  1  0
  9  5  1  0
 10  1  2  0
 10  4  1  0
 10  7  1  0
 13  1  1  0
 14  5  1  0
 15  6  1  0
 16 11  1  0
 16 12  1  0
 16 14  1  0
 17  2  1  0
 17  6  1  0
 17 13  2  0
M  END
>  <ID>  (1) 
conformer_0

$$$$
