
     RDKit          3D

 16 16  0  0  0  0  0  0  0  0999 V2000
    5.6223  107.7307   26.4241 C   0  0  0  0  0  0  0  0  0  0  0  0
    4.2106  107.7796   24.5990 C   0  0  0  0  0  0  0  0  0  0  0  0
   -0.9477  107.7995   21.5769 C   0  0  0  0  0  0  0  0  0  0  0  0
    2.6284  106.4381   24.3889 C   0  0  0  0  0  0  0  0  0  0  0  0
    5.0529  108.8164   24.4909 C   0  0  0  0  0  0  0  0  0  0  0  0
    7.0805  109.9125   25.8780 N   0  0  0  0  0  0  0  0  0  0  0  0
    6.0695  108.9260   25.6332 C   0  0  0  0  0  0  0  0  0  0  0  0
    1.6905  106.6304   24.4452 N   0  0  0  0  0  0  0  0  0  0  0  0
   -1.5099  108.7042   19.4470 C   0  0  0  0  0  0  0  0  0  0  0  0
   -1.2109  108.0147   19.6180 O   0  0  0  0  0  0  0  0  0  0  0  0
   -2.8301  109.1495   18.3700 C   0  0  0  0  0  0  0  0  0  0  0  0
    0.7271  105.4183   22.5930 O   0  0  0  0  0  0  0  0  0  0  0  0
    4.4676  106.9391   25.9147 C   0  0  0  0  0  0  0  0  0  0  0  0
    0.2807  106.5355   22.9333 C   0  0  0  0  0  0  0  0  0  0  0  0
   -0.0763  107.2398   23.2158 N   0  0  0  0  0  0  0  0  0  0  0  0
   -0.9755  109.3377   21.1116 O   0  0  0  0  0  0  0  0  0  0  0  0
  4  2  1  0
  5  2  2  0
  7  1  2  0
  7  5  1  0
  7  6  1  0
  8  4  1  0
 10  9  2  0
 11  9  1  0
 13  1  1  0
 13  2  1  0
 14  8  1  0
 14 12  2  0
 15  3  1  0
 15 14  1  0
 16  3  1  0
 16  9  1  0
M  END
>  <ID>  (1) 
conformer_0

$$$$
