
     RDKit          3D

 17 17  0  0  0  0  0  0  0  0999 V2000
    5.9874  108.0573   26.2292 C   0  0  0  0  0  0  0  0  0  0  0  0
    4.0671  107.3531   24.9564 C   0  0  0  0  0  0  0  0  0  0  0  0
   -0.9840  107.5548   21.4615 C   0  0  0  0  0  0  0  0  0  0  0  0
    5.3233  109.2505   24.4292 C   0  0  0  0  0  0  0  0  0  0  0  0
    7.2047  110.0377   25.6763 N   0  0  0  0  0  0  0  0  0  0  0  0
    6.2227  109.1196   25.3926 C   0  0  0  0  0  0  0  0  0  0  0  0
    2.7173  106.6803   24.2322 C   0  0  0  0  0  0  0  0  0  0  0  0
   -1.3725  108.3426   19.2395 C   0  0  0  0  0  0  0  0  0  0  0  0
    1.2447  105.5258   23.3061 O   0  0  0  0  0  0  0  0  0  0  0  0
   -1.5933  107.6109   19.7873 O   0  0  0  0  0  0  0  0  0  0  0  0
   -0.2749  107.1710   22.5030 N   0  0  0  0  0  0  0  0  0  0  0  0
   -2.8939  108.8787   18.5749 C   0  0  0  0  0  0  0  0  0  0  0  0
    4.8037  107.1244   26.0914 C   0  0  0  0  0  0  0  0  0  0  0  0
    1.6385  107.1419   24.0809 N   0  0  0  0  0  0  0  0  0  0  0  0
   -1.1338  108.7520   21.3873 O   0  0  0  0  0  0  0  0  0  0  0  0
    0.2640  106.5884   22.9410 C   0  0  0  0  0  0  0  0  0  0  0  0
    4.3486  108.4473   24.0639 C   0  0  0  0  0  0  0  0  0  0  0  0
  6  1  2  0
  6  4  1  0
  6  5  1  0
  7  2  1  0
 10  3  1  0
 10  8  1  0
 11  3  1  0
 12  8  1  0
 13  1  1  0
 13  2  2  0
 14  7  1  0
 15  3  2  0
 16  9  2  0
 16 11  1  0
 16 14  1  0
 17  2  1  0
 17  4  2  0
M  END
>  <ID>  (1) 
conformer_0

$$$$
