
     RDKit          3D

 18 18  0  0  0  0  0  0  0  0999 V2000
    5.9612  107.9463   26.1766 C   0  0  0  0  0  0  0  0  0  0  0  0
    5.5098  109.2331   24.5506 C   0  0  0  0  0  0  0  0  0  0  0  0
   -0.7400  107.6563   21.3226 C   0  0  0  0  0  0  0  0  0  0  0  0
    2.5868  106.6585   24.3999 C   0  0  0  0  0  0  0  0  0  0  0  0
    6.3278  108.9587   25.5955 C   0  0  0  0  0  0  0  0  0  0  0  0
    2.4893  105.6114   23.5047 O   0  0  0  0  0  0  0  0  0  0  0  0
   -1.6486  108.5046   19.3890 C   0  0  0  0  0  0  0  0  0  0  0  0
    7.3073  109.8161   25.9551 N   0  0  0  0  0  0  0  0  0  0  0  0
    3.9815  107.4250   24.7910 C   0  0  0  0  0  0  0  0  0  0  0  0
    1.6855  106.8485   24.9097 N   0  0  0  0  0  0  0  0  0  0  0  0
   -2.7919  109.0504   18.3433 C   0  0  0  0  0  0  0  0  0  0  0  0
   -1.5025  107.6072   19.8286 O   0  0  0  0  0  0  0  0  0  0  0  0
    4.4354  108.5296   24.0995 C   0  0  0  0  0  0  0  0  0  0  0  0
   -0.8757  109.2934   21.0854 O   0  0  0  0  0  0  0  0  0  0  0  0
    0.2439  107.2619   23.1938 N   0  0  0  0  0  0  0  0  0  0  0  0
    0.4077  106.6715   22.9407 C   0  0  0  0  0  0  0  0  0  0  0  0
    0.5961  105.8659   22.2097 O   0  0  0  0  0  0  0  0  0  0  0  0
    4.5875  107.0319   26.0264 C   0  0  0  0  0  0  0  0  0  0  0  0
  5  1  2  0
  5  2  1  0
  6  4  1  0
  8  5  1  0
  9  4  1  0
 10  4  1  0
 11  7  1  0
 12  3  1  0
 12  7  1  0
 13  2  2  0
 13  9  1  0
 14  3  2  0
 16  3  1  0
 16  4  1  0
 16 15  1  0
 17 16  1  0
 18  1  1  0
 18  9  2  0
M  END
>  <ID>  (1) 
conformer_0

$$$$
