
     RDKit          3D

 18 18  0  0  0  0  0  0  0  0999 V2000
    5.4339  107.5835   26.4000 C   0  0  0  0  0  0  0  0  0  0  0  0
    4.2996  107.2573   25.5941 C   0  0  0  0  0  0  0  0  0  0  0  0
   -0.9259  107.6083   21.7596 C   0  0  0  0  0  0  0  0  0  0  0  0
    5.9239  109.4746   24.9783 C   0  0  0  0  0  0  0  0  0  0  0  0
    2.7850  106.5506   24.4645 C   0  0  0  0  0  0  0  0  0  0  0  0
    6.3449  108.5990   26.0732 C   0  0  0  0  0  0  0  0  0  0  0  0
    6.5440  110.3881   24.8739 N   0  0  0  0  0  0  0  0  0  0  0  0
    1.8009  106.6669   24.8318 N   0  0  0  0  0  0  0  0  0  0  0  0
   -1.1861  108.1977   19.6203 C   0  0  0  0  0  0  0  0  0  0  0  0
   -1.3806  107.4965   19.8763 O   0  0  0  0  0  0  0  0  0  0  0  0
    1.8358  105.4547   23.1906 O   0  0  0  0  0  0  0  0  0  0  0  0
   -1.0986  108.9629   21.8649 O   0  0  0  0  0  0  0  0  0  0  0  0
   -2.4221  108.8192   18.5499 C   0  0  0  0  0  0  0  0  0  0  0  0
    4.9115  109.0463   24.2115 C   0  0  0  0  0  0  0  0  0  0  0  0
    0.1766  107.1212   23.2915 N   0  0  0  0  0  0  0  0  0  0  0  0
    0.4016  106.5014   23.2650 C   0  0  0  0  0  0  0  0  0  0  0  0
   -0.1319  106.2925   21.6286 O   0  0  0  0  0  0  0  0  0  0  0  0
    4.1158  108.0016   24.4010 C   0  0  0  0  0  0  0  0  0  0  0  0
  2  1  2  0
  6  1  1  0
  6  4  2  0
  7  4  1  0
  8  5  1  0
 10  3  1  0
 10  9  1  0
 11  5  1  0
 12  3  1  0
 13  9  1  0
 14  4  1  0
 16 11  1  0
 16 15  1  0
 17  3  1  0
 17 16  1  0
 18  2  1  0
 18  5  1  0
 18 14  2  0
M  END
>  <ID>  (1) 
conformer_0

$$$$
