
     RDKit          3D

 18 18  0  0  0  0  0  0  0  0999 V2000
    6.1348  107.8415   26.2014 C   0  0  0  0  0  0  0  0  0  0  0  0
    4.1167  107.3397   25.0334 C   0  0  0  0  0  0  0  0  0  0  0  0
   -0.7017  106.7651   22.3346 C   0  0  0  0  0  0  0  0  0  0  0  0
    3.0012  106.7170   24.5210 C   0  0  0  0  0  0  0  0  0  0  0  0
   -1.7004  108.5544   19.2227 C   0  0  0  0  0  0  0  0  0  0  0  0
    4.3848  108.4165   24.1387 C   0  0  0  0  0  0  0  0  0  0  0  0
    6.2705  108.9631   25.5058 C   0  0  0  0  0  0  0  0  0  0  0  0
    0.4472  106.8162   23.4433 N   0  0  0  0  0  0  0  0  0  0  0  0
   -1.5608  107.9256   20.0452 O   0  0  0  0  0  0  0  0  0  0  0  0
    7.2181  109.8705   25.8325 N   0  0  0  0  0  0  0  0  0  0  0  0
   -2.3667  109.0062   18.3536 C   0  0  0  0  0  0  0  0  0  0  0  0
    2.2349  105.7960   22.9811 O   0  0  0  0  0  0  0  0  0  0  0  0
   -0.5474  108.7377   21.9598 O   0  0  0  0  0  0  0  0  0  0  0  0
    5.3989  109.2142   24.5395 C   0  0  0  0  0  0  0  0  0  0  0  0
   -0.6841  107.8901   21.0825 C   0  0  1  0  0  0  0  0  0  0  0  0
    4.8778  107.0493   26.1704 C   0  0  0  0  0  0  0  0  0  0  0  0
    2.0003  106.6770   24.8075 N   0  0  0  0  0  0  0  0  0  0  0  0
    0.9302  106.4226   23.3410 C   0  0  1  0  0  0  0  0  0  0  0  0
  4  2  1  0
  6  2  1  0
  7  1  2  0
  8  3  1  0
  9  5  1  0
 10  7  1  0
 11  5  2  3
 14  6  2  0
 14  7  1  0
 15  3  1  0
 15  9  1  0
 15 13  1  1
 16  1  1  0
 16  2  2  0
 17  4  1  0
 18  8  1  0
 18 12  1  6
 18 17  1  0
M  END
>  <ID>  (1) 
conformer_0

$$$$
