
     RDKit          3D

 17 17  0  0  0  0  0  0  0  0999 V2000
    4.2907  108.3681   24.2873 C   0  0  0  0  0  0  0  0  0  0  0  0
    5.3486  109.2162   24.6898 C   0  0  0  0  0  0  0  0  0  0  0  0
   -0.7423  107.6816   21.7318 C   0  0  0  0  0  0  0  0  0  0  0  0
   -2.5750  108.9075   18.4546 C   0  0  0  0  0  0  0  0  0  0  0  0
    2.7871  106.5139   24.4574 C   0  0  0  0  0  0  0  0  0  0  0  0
   -1.3880  108.4836   19.4937 C   0  0  0  0  0  0  0  0  0  0  0  0
    6.2977  108.8862   25.4945 C   0  0  0  0  0  0  0  0  0  0  0  0
   -1.1282  109.2291   20.6313 O   0  0  0  0  0  0  0  0  0  0  0  0
    2.2633  106.5326   24.9018 N   0  0  0  0  0  0  0  0  0  0  0  0
    6.4130  107.7468   25.9678 C   0  0  0  0  0  0  0  0  0  0  0  0
    7.2813  109.8266   25.7368 N   0  0  0  0  0  0  0  0  0  0  0  0
    0.9505  105.5872   23.0265 O   0  0  0  0  0  0  0  0  0  0  0  0
    5.0564  106.9277   26.1975 C   0  0  0  0  0  0  0  0  0  0  0  0
    0.4179  106.6172   23.0854 C   0  0  0  0  0  0  0  0  0  0  0  0
    0.5002  107.2839   23.5999 N   0  0  0  0  0  0  0  0  0  0  0  0
   -1.0666  107.3284   20.7174 O   0  0  0  0  0  0  0  0  0  0  0  0
    4.1073  107.2675   25.2451 C   0  0  0  0  0  0  0  0  0  0  0  0
  2  1  2  0
  6  4  1  0
  7  2  1  0
  8  6  1  0
  9  5  1  0
 10  7  2  0
 11  7  1  0
 13 10  1  0
 14  3  1  0
 14  5  1  0
 14 12  1  0
 15 14  1  0
 16  3  1  0
 16  6  1  0
 17  1  1  0
 17  5  1  0
 17 13  2  0
M  END
>  <ID>  (1) 
conformer_0

$$$$
