
     RDKit          3D

 17 17  0  0  0  0  0  0  0  0999 V2000
    5.9849  108.2765   26.4053 C   0  0  0  0  0  0  0  0  0  0  0  0
    5.0703  107.2137   26.2989 C   0  0  0  0  0  0  0  0  0  0  0  0
   -0.8865  107.4226   21.8710 C   0  0  0  0  0  0  0  0  0  0  0  0
    2.8109  106.5863   24.3248 C   0  0  0  0  0  0  0  0  0  0  0  0
    1.1242  105.3283   22.6856 O   0  0  0  0  0  0  0  0  0  0  0  0
    4.1424  107.1976   25.2210 C   0  0  0  0  0  0  0  0  0  0  0  0
    5.8899  109.3609   25.4696 C   0  0  0  0  0  0  0  0  0  0  0  0
    2.1425  106.6681   24.4625 N   0  0  0  0  0  0  0  0  0  0  0  0
   -2.3373  108.8517   18.5995 C   0  0  0  0  0  0  0  0  0  0  0  0
   -1.2357  108.4282   19.6141 C   0  0  0  0  0  0  0  0  0  0  0  0
   -1.1651  107.5908   20.2050 O   0  0  0  0  0  0  0  0  0  0  0  0
    6.7438  110.2519   25.6540 N   0  0  0  0  0  0  0  0  0  0  0  0
    5.0763  109.1487   24.5052 C   0  0  0  0  0  0  0  0  0  0  0  0
    4.2142  108.3001   24.1726 C   0  0  0  0  0  0  0  0  0  0  0  0
    0.5198  106.3112   22.9919 C   0  0  0  0  0  0  0  0  0  0  0  0
    0.3864  107.1078   23.5121 N   0  0  0  0  0  0  0  0  0  0  0  0
   -0.6632  109.0667   21.3976 O   0  0  0  0  0  0  0  0  0  0  0  0
  2  1  2  0
  6  2  1  0
  6  4  1  0
  7  1  1  0
  8  4  1  0
 10  9  1  0
 11  3  1  0
 11 10  1  0
 12  7  1  0
 13  7  2  0
 14  6  2  0
 14 13  1  0
 15  3  1  0
 15  5  2  0
 16  8  1  0
 16 15  1  0
 17  3  1  0
M  END
>  <ID>  (1) 
conformer_0

$$$$
