
     RDKit          3D

 17 17  0  0  0  0  0  0  0  0999 V2000
    5.1512  109.1789   24.5918 C   0  0  0  0  0  0  0  0  0  0  0  0
    4.2641  108.3610   24.1237 C   0  0  0  0  0  0  0  0  0  0  0  0
   -0.6449  107.5203   21.9768 C   0  0  0  0  0  0  0  0  0  0  0  0
    2.6722  106.5016   24.3682 C   0  0  0  0  0  0  0  0  0  0  0  0
    4.7501  106.9080   26.0848 C   0  0  0  0  0  0  0  0  0  0  0  0
    6.9313  109.9785   25.9985 N   0  0  0  0  0  0  0  0  0  0  0  0
   -1.1840  108.4407   19.6244 C   0  0  0  0  0  0  0  0  0  0  0  0
    5.9532  109.0498   25.6490 C   0  0  0  0  0  0  0  0  0  0  0  0
   -2.3547  108.9273   18.5390 C   0  0  0  0  0  0  0  0  0  0  0  0
    1.3327  107.2304   23.9106 N   0  0  0  0  0  0  0  0  0  0  0  0
    1.2444  105.3298   23.7519 O   0  0  0  0  0  0  0  0  0  0  0  0
   -1.3443  107.8646   20.5940 O   0  0  0  0  0  0  0  0  0  0  0  0
    5.8826  107.8555   26.3069 C   0  0  0  0  0  0  0  0  0  0  0  0
   -0.4005  106.3134   21.7925 O   0  0  0  0  0  0  0  0  0  0  0  0
    0.4433  106.4469   23.3614 C   0  0  0  0  0  0  0  0  0  0  0  0
   -0.3752  108.5720   19.1424 F   0  0  0  0  0  0  0  0  0  0  0  0
    4.0174  107.2528   25.0236 C   0  0  0  0  0  0  0  0  0  0  0  0
  2  1  2  0
  8  1  1  0
  8  6  1  0
  9  7  1  0
 10  4  1  0
 12  3  1  0
 12  7  1  0
 13  5  1  0
 13  8  2  0
 14  3  1  0
 15 10  1  0
 15 11  1  0
 15 14  1  0
 16  7  1  0
 17  2  1  0
 17  4  1  0
 17  5  2  0
M  END
>  <ID>  (1) 
conformer_0

$$$$
