
     RDKit          3D

 17 17  0  0  0  0  0  0  0  0999 V2000
    4.6394  106.9818   26.0269 C   0  0  0  0  0  0  0  0  0  0  0  0
    5.7823  107.8644   26.2144 C   0  0  0  0  0  0  0  0  0  0  0  0
   -0.8952  107.5094   21.5358 C   0  0  0  0  0  0  0  0  0  0  0  0
    2.3859  106.5182   24.1443 C   0  0  0  0  0  0  0  0  0  0  0  0
    3.8667  107.2610   24.8909 C   0  0  0  0  0  0  0  0  0  0  0  0
    7.0063  109.9609   25.9393 N   0  0  0  0  0  0  0  0  0  0  0  0
   -1.1426  107.8826   20.1527 O   0  0  0  0  0  0  0  0  0  0  0  0
    6.0206  109.1214   25.5853 C   0  0  0  0  0  0  0  0  0  0  0  0
    1.7737  105.4520   23.1754 O   0  0  0  0  0  0  0  0  0  0  0  0
   -1.2385  108.2668   19.2891 C   0  0  0  0  0  0  0  0  0  0  0  0
   -0.3037  108.8443   22.2911 O   0  0  0  0  0  0  0  0  0  0  0  0
    1.2875  106.9191   24.3238 N   0  0  0  0  0  0  0  0  0  0  0  0
   -2.6497  109.0170   18.4476 C   0  0  0  0  0  0  0  0  0  0  0  0
    5.2143  109.1244   24.5245 C   0  0  0  0  0  0  0  0  0  0  0  0
    4.2379  108.3821   24.1065 C   0  0  0  0  0  0  0  0  0  0  0  0
   -0.4817  106.6072   22.8157 N   0  0  0  0  0  0  0  0  0  0  0  0
    0.1458  106.5422   22.8636 C   0  0  0  0  0  0  0  0  0  0  0  0
  2  1  2  0
  5  1  1  0
  5  4  1  0
  7  3  1  0
  8  2  1  0
  8  6  1  0
  9  4  2  0
 10  7  1  0
 11  3  2  0
 12  4  1  0
 13 10  1  0
 14  8  2  0
 15  5  2  0
 15 14  1  0
 16  3  1  0
 17 12  1  0
 17 16  1  0
M  END
>  <ID>  (1) 
conformer_0

$$$$
