
     RDKit          3D

 17 17  0  0  0  0  0  0  0  0999 V2000
    5.6079  108.9808   24.4989 C   0  0  0  0  0  0  0  0  0  0  0  0
    4.5859  106.8619   26.0893 C   0  0  0  0  0  0  0  0  0  0  0  0
   -0.7425  107.5685   21.6180 C   0  0  0  0  0  0  0  0  0  0  0  0
   -2.2457  108.8146   18.4150 C   0  0  0  0  0  0  0  0  0  0  0  0
    1.8776  106.6224   24.1977 N   0  0  0  0  0  0  0  0  0  0  0  0
   -0.7895  109.2695   21.2279 O   0  0  0  0  0  0  0  0  0  0  0  0
    2.8691  106.7168   24.2901 C   0  0  0  0  0  0  0  0  0  0  0  0
    5.9313  108.6795   25.7567 C   0  0  0  0  0  0  0  0  0  0  0  0
   -1.4869  108.5166   19.4688 C   0  0  0  0  0  0  0  0  0  0  0  0
    4.3615  108.5434   24.1128 C   0  0  0  0  0  0  0  0  0  0  0  0
    6.6843  109.5732   26.6041 O   0  0  0  0  0  0  0  0  0  0  0  0
    0.2483  105.5846   22.1489 O   0  0  0  0  0  0  0  0  0  0  0  0
    4.0280  107.3299   24.7779 C   0  0  0  0  0  0  0  0  0  0  0  0
    0.1418  107.2008   23.0002 N   0  0  0  0  0  0  0  0  0  0  0  0
    0.5487  106.5540   23.0275 C   0  0  0  0  0  0  0  0  0  0  0  0
    6.1091  107.4822   25.9888 C   0  0  0  0  0  0  0  0  0  0  0  0
   -1.5301  107.9234   20.1563 O   0  0  0  0  0  0  0  0  0  0  0  0
  6  3  2  0
  7  5  1  0
  8  1  2  0
  9  4  2  3
 10  1  1  0
 11  8  1  0
 13  2  1  0
 13  7  1  0
 13 10  2  0
 14  3  1  0
 15  5  1  0
 15 12  2  0
 15 14  1  0
 16  2  2  0
 16  8  1  0
 17  3  1  0
 17  9  1  0
M  END
>  <ID>  (1) 
conformer_0

$$$$
