
     RDKit          3D

 16 16  0  0  0  0  0  0  0  0999 V2000
    5.8569  108.0701   26.3789 C   0  0  0  0  0  0  0  0  0  0  0  0
    4.8349  107.0946   26.0601 C   0  0  0  0  0  0  0  0  0  0  0  0
   -1.0920  107.5795   21.4867 C   0  0  0  0  0  0  0  0  0  0  0  0
    2.7868  106.6842   24.0560 C   0  0  0  0  0  0  0  0  0  0  0  0
    4.2439  107.6679   24.8365 C   0  0  0  0  0  0  0  0  0  0  0  0
    2.1169  105.5219   22.9125 O   0  0  0  0  0  0  0  0  0  0  0  0
    6.0364  109.3018   25.3750 C   0  0  0  0  0  0  0  0  0  0  0  0
   -0.2851  107.2739   23.1417 N   0  0  0  0  0  0  0  0  0  0  0  0
   -2.3496  107.6063   19.6531 O   0  0  0  0  0  0  0  0  0  0  0  0
   -2.0061  108.2893   19.3427 C   0  0  0  0  0  0  0  0  0  0  0  0
    6.8298  110.2293   25.4418 N   0  0  0  0  0  0  0  0  0  0  0  0
    4.8461  108.8976   24.4065 C   0  0  0  0  0  0  0  0  0  0  0  0
   -2.9418  109.3010   18.5350 C   0  0  0  0  0  0  0  0  0  0  0  0
    1.7427  107.0255   24.0348 N   0  0  0  0  0  0  0  0  0  0  0  0
    0.3171  106.6755   22.7517 C   0  0  0  0  0  0  0  0  0  0  0  0
   -1.0706  107.7870   21.0065 O   0  0  0  0  0  0  0  0  0  0  0  0
  2  1  2  0
  5  2  1  0
  5  4  1  0
  6  4  2  0
  7  1  1  0
  8  3  1  0
 10  9  1  0
 11  7  1  0
 12  5  2  0
 12  7  1  0
 13 10  1  0
 14  4  1  0
 15  8  1  0
 15 14  1  0
 16  3  1  0
 16  9  1  0
M  END
>  <ID>  (1) 
conformer_0

$$$$
