
     RDKit          3D

 17 17  0  0  0  0  0  0  0  0999 V2000
    4.0878  107.0673   25.2928 C   0  0  0  0  0  0  0  0  0  0  0  0
    5.1792  106.8246   26.0285 C   0  0  0  0  0  0  0  0  0  0  0  0
   -1.1369  107.7730   21.8733 C   0  0  0  0  0  0  0  0  0  0  0  0
    2.6937  106.5027   24.4103 C   0  0  0  0  0  0  0  0  0  0  0  0
   -2.6791  108.9032   18.7251 C   0  0  0  0  0  0  0  0  0  0  0  0
    1.9187  106.8364   24.3220 N   0  0  0  0  0  0  0  0  0  0  0  0
    6.2664  107.7567   26.1004 C   0  0  0  0  0  0  0  0  0  0  0  0
    6.1418  108.9708   25.4537 C   0  0  0  0  0  0  0  0  0  0  0  0
    1.0662  105.4321   22.5986 O   0  0  0  0  0  0  0  0  0  0  0  0
   -0.9595  107.7917   20.0491 O   0  0  0  0  0  0  0  0  0  0  0  0
   -1.4847  108.3689   19.6970 C   0  0  0  0  0  0  0  0  0  0  0  0
    6.9641  109.8942   25.8254 N   0  0  0  0  0  0  0  0  0  0  0  0
    4.2033  108.1960   24.3222 C   0  0  0  0  0  0  0  0  0  0  0  0
    0.5230  106.4963   22.9754 C   0  0  0  0  0  0  0  0  0  0  0  0
    0.0813  107.0999   23.1785 N   0  0  0  0  0  0  0  0  0  0  0  0
   -0.8412  109.2032   21.3930 O   0  0  0  0  0  0  0  0  0  0  0  0
    5.0382  109.1173   24.5682 C   0  0  0  0  0  0  0  0  0  0  0  0
  2  1  2  0
  4  1  1  0
  6  4  1  0
  7  2  1  0
  8  7  2  0
 10  3  1  0
 11  5  1  0
 11 10  1  0
 12  8  1  0
 13  1  1  0
 14  6  1  0
 14  9  2  0
 15  3  1  0
 15 14  1  0
 16  3  1  0
 17  8  1  0
 17 13  2  0
M  END
>  <ID>  (1) 
conformer_0

$$$$
