
     RDKit          3D

 17 17  0  0  0  0  0  0  0  0999 V2000
    6.0575  107.7065   26.0038 C   0  0  0  0  0  0  0  0  0  0  0  0
    4.7047  107.0282   26.0264 C   0  0  0  0  0  0  0  0  0  0  0  0
   -0.9253  107.6519   21.7505 C   0  0  0  0  0  0  0  0  0  0  0  0
    2.5158  106.5447   24.3339 C   0  0  0  0  0  0  0  0  0  0  0  0
   -1.0314  108.4704   19.4092 C   0  0  0  0  0  0  0  0  0  0  0  0
    4.3209  108.4580   24.0487 C   0  0  0  0  0  0  0  0  0  0  0  0
    1.2221  106.8863   24.3984 N   0  0  0  0  0  0  0  0  0  0  0  0
    6.2414  108.8838   25.3932 C   0  0  0  0  0  0  0  0  0  0  0  0
   -2.6176  109.0493   18.5854 C   0  0  0  0  0  0  0  0  0  0  0  0
   -1.2703  107.8948   19.9281 O   0  0  0  0  0  0  0  0  0  0  0  0
    7.2486  109.6984   25.6588 N   0  0  0  0  0  0  0  0  0  0  0  0
    2.0699  105.5186   23.5817 O   0  0  0  0  0  0  0  0  0  0  0  0
    3.9610  107.3272   24.8594 C   0  0  0  0  0  0  0  0  0  0  0  0
   -0.6557  109.2658   21.7549 O   0  0  0  0  0  0  0  0  0  0  0  0
   -0.0824  106.6009   23.1892 C   0  0  0  0  0  0  0  0  0  0  0  0
   -0.1611  106.9920   21.8074 O   0  0  0  0  0  0  0  0  0  0  0  0
    5.3207  109.1169   24.4454 C   0  0  0  0  0  0  0  0  0  0  0  0
  2  1  2  0
  7  4  1  0
  8  1  1  0
  9  5  1  0
 10  3  1  0
 10  5  1  0
 11  8  1  0
 12  4  2  0
 13  2  1  0
 13  4  1  0
 13  6  2  0
 14  3  1  0
 15  7  1  0
 16  3  1  0
 16 15  1  0
 17  6  1  0
 17  8  2  0
M  END
>  <ID>  (1) 
conformer_0

$$$$
