
     RDKit          3D

 16 16  0  0  0  0  0  0  0  0999 V2000
    4.2597  107.7860   24.6307 C   0  0  0  0  0  0  0  0  0  0  0  0
    5.1742  108.7882   24.3649 C   0  0  0  0  0  0  0  0  0  0  0  0
   -1.2091  107.3153   21.6886 C   0  0  0  0  0  0  0  0  0  0  0  0
   -1.1743  108.3913   19.3715 C   0  0  0  0  0  0  0  0  0  0  0  0
    2.7052  106.8164   24.1540 C   0  0  0  0  0  0  0  0  0  0  0  0
    6.1999  109.1078   25.4885 C   0  0  0  0  0  0  0  0  0  0  0  0
    5.8948  108.0474   26.4392 C   0  0  0  0  0  0  0  0  0  0  0  0
   -0.2210  106.9997   23.4462 N   0  0  0  0  0  0  0  0  0  0  0  0
   -2.7678  109.0401   18.5959 C   0  0  0  0  0  0  0  0  0  0  0  0
   -1.4542  107.6718   19.9482 O   0  0  0  0  0  0  0  0  0  0  0  0
    7.0486  110.1455   25.7514 N   0  0  0  0  0  0  0  0  0  0  0  0
    1.5120  105.5950   22.8131 O   0  0  0  0  0  0  0  0  0  0  0  0
    4.6021  107.1814   26.0433 C   0  0  0  0  0  0  0  0  0  0  0  0
    0.1584  106.5682   22.9487 C   0  0  0  0  0  0  0  0  0  0  0  0
   -0.7162  108.7916   21.3931 O   0  0  0  0  0  0  0  0  0  0  0  0
    1.8067  107.0542   24.2775 N   0  0  0  0  0  0  0  0  0  0  0  0
  2  1  2  0
  5  1  1  0
  6  2  1  0
  7  6  2  0
  9  4  1  0
 10  3  1  0
 10  4  1  0
 11  6  1  0
 13  1  1  0
 13  7  1  0
 14  3  1  0
 14  8  1  0
 14 12  1  0
 15  3  1  0
 16  5  1  0
 16 14  1  0
M  END
>  <ID>  (1) 
conformer_0

$$$$
