
     RDKit          3D

 18 18  0  0  0  0  0  0  0  0999 V2000
    4.1373  107.0649   25.3671 C   0  0  0  0  0  0  0  0  0  0  0  0
    6.1837  107.8902   26.3677 C   0  0  0  0  0  0  0  0  0  0  0  0
   -0.9319  107.8541   21.6274 C   0  0  0  0  0  0  0  0  0  0  0  0
    2.6901  106.7186   24.2851 C   0  0  0  0  0  0  0  0  0  0  0  0
   -1.4590  108.5504   19.2843 C   0  0  0  0  0  0  0  0  0  0  0  0
   -2.9514  109.0044   18.6580 C   0  0  0  0  0  0  0  0  0  0  0  0
    1.9870  106.9739   24.6278 N   0  0  0  0  0  0  0  0  0  0  0  0
    6.2661  108.8375   25.7103 C   0  0  0  0  0  0  0  0  0  0  0  0
    4.3134  108.1316   24.3998 C   0  0  0  0  0  0  0  0  0  0  0  0
    7.2671  109.7825   25.8553 N   0  0  0  0  0  0  0  0  0  0  0  0
   -1.3732  108.1969   19.8818 O   0  0  0  0  0  0  0  0  0  0  0  0
    1.8726  105.8103   22.9326 O   0  0  0  0  0  0  0  0  0  0  0  0
    5.0902  106.8566   26.2955 C   0  0  0  0  0  0  0  0  0  0  0  0
   -0.8982  109.2945   21.7044 O   0  0  0  0  0  0  0  0  0  0  0  0
    0.1961  106.8843   22.9636 C   0  0  0  0  0  0  0  0  0  0  0  0
   -0.3851  106.4814   21.6981 O   0  0  0  0  0  0  0  0  0  0  0  0
    0.3226  107.2252   23.5546 N   0  0  0  0  0  0  0  0  0  0  0  0
    5.2710  109.0961   24.7339 C   0  0  0  0  0  0  0  0  0  0  0  0
  4  1  1  0
  6  5  1  0
  7  4  1  0
  8  2  1  0
  9  1  2  0
 10  8  1  0
 11  3  1  0
 11  5  1  0
 12  4  1  0
 13  1  1  0
 13  2  2  0
 14  3  2  0
 15 12  1  0
 16  3  1  0
 16 15  1  0
 17 15  1  0
 18  8  2  0
 18  9  1  0
M  END
>  <ID>  (1) 
conformer_0

$$$$
