
     RDKit          3D

 17 17  0  0  0  0  0  0  0  0999 V2000
    5.1380  109.0020   24.3404 C   0  0  0  0  0  0  0  0  0  0  0  0
    3.8779  107.2251   25.0696 C   0  0  0  0  0  0  0  0  0  0  0  0
   -0.0378  106.0236   22.9398 C   0  0  0  0  0  0  0  0  0  0  0  0
   -1.1636  108.4439   19.6317 C   0  0  0  0  0  0  0  0  0  0  0  0
    5.7474  108.1507   26.3912 C   0  0  0  0  0  0  0  0  0  0  0  0
    2.4155  106.6190   23.9813 C   0  0  0  0  0  0  0  0  0  0  0  0
    5.9471  109.1213   25.4971 C   0  0  0  0  0  0  0  0  0  0  0  0
    1.7346  106.8835   24.2464 N   0  0  0  0  0  0  0  0  0  0  0  0
    6.8462  110.0368   25.7432 N   0  0  0  0  0  0  0  0  0  0  0  0
   -1.3366  107.8490   20.3124 O   0  0  0  0  0  0  0  0  0  0  0  0
   -2.4507  109.0040   18.5067 C   0  0  0  0  0  0  0  0  0  0  0  0
    1.7721  105.2781   22.9714 O   0  0  0  0  0  0  0  0  0  0  0  0
    4.6232  107.2142   26.3023 C   0  0  0  0  0  0  0  0  0  0  0  0
   -0.4253  108.6072   21.9076 O   0  0  0  0  0  0  0  0  0  0  0  0
   -0.6472  107.4095   21.7853 C   0  0  0  0  0  0  0  0  0  0  0  0
    0.0353  106.4510   23.0186 N   0  0  0  0  0  0  0  0  0  0  0  0
    4.1918  108.1931   24.0963 C   0  0  0  0  0  0  0  0  0  0  0  0
  6  2  1  0
  7  1  2  0
  7  5  1  0
  8  6  1  0
  9  7  1  0
 10  4  1  0
 11  4  1  0
 12  3  1  0
 12  6  1  0
 13  2  1  0
 13  5  2  0
 15 10  1  0
 15 14  2  0
 16  3  1  0
 16 15  1  0
 17  1  1  0
 17  2  2  0
M  END
>  <ID>  (1) 
conformer_0

$$$$
