
     RDKit          3D

 17 17  0  0  0  0  0  0  0  0999 V2000
    6.1795  107.6981   26.1380 C   0  0  0  0  0  0  0  0  0  0  0  0
    4.0644  107.1724   25.1685 C   0  0  0  0  0  0  0  0  0  0  0  0
    4.2578  108.2588   24.2294 C   0  0  0  0  0  0  0  0  0  0  0  0
   -0.8202  107.5756   21.4163 C   0  0  0  0  0  0  0  0  0  0  0  0
   -1.4497  108.5154   19.3119 C   0  0  0  0  0  0  0  0  0  0  0  0
    6.3040  108.8566   25.4024 C   0  0  0  0  0  0  0  0  0  0  0  0
    2.5846  106.5333   24.3574 C   0  0  0  0  0  0  0  0  0  0  0  0
    1.6226  106.6446   24.7156 N   0  0  0  0  0  0  0  0  0  0  0  0
   -2.8300  109.0132   18.3090 C   0  0  0  0  0  0  0  0  0  0  0  0
   -1.2306  107.2644   20.5018 O   0  0  0  0  0  0  0  0  0  0  0  0
    0.8868  105.3097   22.5180 O   0  0  0  0  0  0  0  0  0  0  0  0
    7.1774  109.8107   25.6508 N   0  0  0  0  0  0  0  0  0  0  0  0
    5.2227  109.0268   24.5048 C   0  0  0  0  0  0  0  0  0  0  0  0
    0.1828  107.0966   22.9600 N   0  0  0  0  0  0  0  0  0  0  0  0
    0.3057  106.2416   23.1175 C   0  0  0  0  0  0  0  0  0  0  0  0
   -1.5164  109.3746   20.4811 O   0  0  0  0  0  0  0  0  0  0  0  0
    4.9433  106.8579   26.1089 C   0  0  0  0  0  0  0  0  0  0  0  0
  3  2  1  0
  6  1  2  0
  7  2  1  0
  8  7  1  0
  9  5  1  0
 10  4  1  0
 10  5  1  0
 12  6  1  0
 13  3  2  0
 13  6  1  0
 14  4  1  0
 15  8  1  0
 15 11  1  0
 15 14  1  0
 16  5  1  0
 17  1  1  0
 17  2  2  0
M  END
>  <ID>  (1) 
conformer_0

$$$$
