
     RDKit          3D

 18 18  0  0  0  0  0  0  0  0999 V2000
    5.0255  107.1743   26.3040 C   0  0  0  0  0  0  0  0  0  0  0  0
    5.9886  108.2700   26.3819 C   0  0  0  0  0  0  0  0  0  0  0  0
   -1.1539  106.5494   22.0040 C   0  0  0  0  0  0  0  0  0  0  0  0
    2.9331  106.6181   24.3778 C   0  0  0  0  0  0  0  0  0  0  0  0
    4.1790  107.1757   25.2645 C   0  0  0  0  0  0  0  0  0  0  0  0
   -0.9851  108.0200   21.6055 C   0  0  0  0  0  0  0  0  0  0  0  0
    2.0185  106.8129   24.2973 N   0  0  0  0  0  0  0  0  0  0  0  0
    6.0565  109.3184   25.4686 C   0  0  0  0  0  0  0  0  0  0  0  0
    0.7543  105.1963   23.1674 O   0  0  0  0  0  0  0  0  0  0  0  0
   -1.4244  107.4608   19.8624 O   0  0  0  0  0  0  0  0  0  0  0  0
    6.9232  110.2802   25.6894 N   0  0  0  0  0  0  0  0  0  0  0  0
   -1.9323  109.0203   18.5054 C   0  0  0  0  0  0  0  0  0  0  0  0
    4.2451  108.2308   24.2761 C   0  0  0  0  0  0  0  0  0  0  0  0
   -0.5748  108.8779   21.4002 O   0  0  0  0  0  0  0  0  0  0  0  0
   -1.4356  108.3816   19.4419 C   0  0  0  0  0  0  0  0  0  0  0  0
    0.3208  107.1759   23.1913 N   0  0  0  0  0  0  0  0  0  0  0  0
    5.1311  109.1302   24.4349 C   0  0  0  0  0  0  0  0  0  0  0  0
    0.7090  106.2363   23.2272 C   0  0  0  0  0  0  0  0  0  0  0  0
  2  1  2  0
  5  1  1  0
  5  4  1  0
  6  3  1  0
  7  4  1  0
  8  2  1  0
 10  6  1  0
 11  8  1  0
 13  5  2  0
 14  6  2  0
 15 10  1  0
 15 12  2  3
 16  3  1  0
 17  8  2  0
 17 13  1  0
 18  7  1  0
 18  9  2  0
 18 16  1  0
M  END
>  <ID>  (1) 
conformer_0

$$$$
