
     RDKit          3D

 16 16  0  0  0  0  0  0  0  0999 V2000
    6.0990  107.7881   25.9271 C   0  0  0  0  0  0  0  0  0  0  0  0
    4.9397  106.9323   26.0636 C   0  0  0  0  0  0  0  0  0  0  0  0
    0.0338  106.6404   22.8987 C   0  0  0  0  0  0  0  0  0  0  0  0
    2.4047  106.5951   24.0699 C   0  0  0  0  0  0  0  0  0  0  0  0
    2.1642  105.8677   23.1016 O   0  0  0  0  0  0  0  0  0  0  0  0
   -1.3006  108.4650   19.2015 C   0  0  0  0  0  0  0  0  0  0  0  0
    5.7879  108.9690   25.3149 C   0  0  0  0  0  0  0  0  0  0  0  0
   -0.1903  107.0065   23.4374 N   0  0  0  0  0  0  0  0  0  0  0  0
   -0.6550  108.9900   21.6524 O   0  0  0  0  0  0  0  0  0  0  0  0
    4.1431  108.3777   23.9231 C   0  0  0  0  0  0  0  0  0  0  0  0
    6.5429  109.9682   25.4071 N   0  0  0  0  0  0  0  0  0  0  0  0
    1.8633  107.0805   24.4554 N   0  0  0  0  0  0  0  0  0  0  0  0
    5.0014  109.1412   24.4704 C   0  0  0  0  0  0  0  0  0  0  0  0
   -0.9979  107.7173   21.6252 C   0  0  0  0  0  0  0  0  0  0  0  0
   -1.2625  107.8525   20.1170 O   0  0  0  0  0  0  0  0  0  0  0  0
    4.0407  107.1098   25.0484 C   0  0  0  0  0  0  0  0  0  0  0  0
  2  1  2  0
  4  3  1  0
  5  4  1  0
  7  1  1  0
  8  3  1  0
 11  7  1  0
 12  4  1  0
 13  7  2  0
 13 10  1  0
 14  3  1  0
 14  9  1  0
 15  6  1  0
 15 14  1  0
 16  2  1  0
 16  4  1  0
 16 10  2  0
M  END
>  <ID>  (1) 
conformer_0

$$$$
