
     RDKit          3D

 18 19  0  0  0  0  0  0  0  0999 V2000
    6.3023  107.8824   26.2988 C   0  0  0  0  0  0  0  0  0  0  0  0
    5.0584  107.0775   26.4120 C   0  0  0  0  0  0  0  0  0  0  0  0
    0.4059  106.6666   22.8640 C   0  0  0  0  0  0  0  0  0  0  0  0
   -2.7182  108.9634   18.7022 C   0  0  0  0  0  0  0  0  0  0  0  0
    2.7202  106.8076   24.0662 C   0  0  0  0  0  0  0  0  0  0  0  0
    6.3499  109.0215   25.5451 C   0  0  0  0  0  0  0  0  0  0  0  0
   -1.4262  108.4475   19.5663 C   0  0  0  0  0  0  0  0  0  0  0  0
    4.2542  108.2748   24.4731 C   0  0  0  0  0  0  0  0  0  0  0  0
    2.5152  105.7726   23.2307 O   0  0  0  0  0  0  0  0  0  0  0  0
   -1.6697  108.8600   21.1927 O   0  0  0  0  0  0  0  0  0  0  0  0
    1.9554  107.1415   24.2067 N   0  0  0  0  0  0  0  0  0  0  0  0
    7.2702  109.8413   25.7390 N   0  0  0  0  0  0  0  0  0  0  0  0
    5.2650  109.1671   24.6642 C   0  0  0  0  0  0  0  0  0  0  0  0
    0.0687  105.7021   22.2975 O   0  0  0  0  0  0  0  0  0  0  0  0
   -0.7898  107.6332   21.6521 C   0  0  0  0  0  0  0  0  0  0  0  0
    0.1054  107.4639   23.2364 N   0  0  0  0  0  0  0  0  0  0  0  0
    4.0970  107.1958   25.4557 C   0  0  0  0  0  0  0  0  0  0  0  0
   -1.5077  107.2992   20.5330 O   0  0  0  0  0  0  0  0  0  0  0  0
  2  1  2  0
  5  3  1  0
  6  1  1  0
  7  4  1  0
  9  5  1  0
 10  7  1  0
 11  5  1  0
 12  6  1  0
 13  6  2  0
 13  8  1  0
 14  3  2  0
 15 10  1  0
 16  3  1  0
 16 15  1  0
 17  2  1  0
 17  5  1  0
 17  8  2  0
 18  7  1  0
 18 15  1  0
M  END
>  <ID>  (1) 
conformer_0

$$$$
