
     RDKit          3D

 17 18  0  0  0  0  0  0  0  0999 V2000
    5.0227  107.2369   26.0749 C   0  0  0  0  0  0  0  0  0  0  0  0
    6.0747  108.1753   26.0456 C   0  0  0  0  0  0  0  0  0  0  0  0
   -0.7260  107.4281   21.7204 C   0  0  0  0  0  0  0  0  0  0  0  0
    2.7874  106.6641   24.1930 C   0  0  0  0  0  0  0  0  0  0  0  0
   -2.6435  108.7383   18.7071 C   0  0  0  0  0  0  0  0  0  0  0  0
    0.3467  107.2019   22.9574 N   0  0  0  0  0  0  0  0  0  0  0  0
    4.0923  107.2436   24.9455 C   0  0  0  0  0  0  0  0  0  0  0  0
    5.8663  109.3499   25.3439 C   0  0  0  0  0  0  0  0  0  0  0  0
    1.9169  105.3412   23.4187 O   0  0  0  0  0  0  0  0  0  0  0  0
   -1.2967  108.2112   20.4717 O   0  0  0  0  0  0  0  0  0  0  0  0
   -1.7469  108.2408   19.7468 C   0  0  0  0  0  0  0  0  0  0  0  0
    6.5406  110.2499   25.5458 N   0  0  0  0  0  0  0  0  0  0  0  0
    4.2591  108.3547   24.0453 C   0  0  0  0  0  0  0  0  0  0  0  0
   -0.8364  106.4824   21.3090 O   0  0  0  0  0  0  0  0  0  0  0  0
    0.6868  106.4068   23.1771 C   0  0  0  0  0  0  0  0  0  0  0  0
    1.6393  106.9745   24.4238 N   0  0  0  0  0  0  0  0  0  0  0  0
    5.1209  109.2449   24.2229 C   0  0  0  0  0  0  0  0  0  0  0  0
  2  1  2  0
  6  3  1  0
  7  1  1  0
  7  4  1  0
  8  2  1  0
  9  4  1  0
 10  3  1  0
 11  5  1  0
 11 10  1  0
 12  8  1  0
 13  7  2  0
 14  3  2  0
 15  6  1  0
 15  9  1  0
 16  4  1  0
 16 15  1  0
 17  8  2  0
 17 13  1  0
M  END
>  <ID>  (1) 
conformer_0

$$$$
