
     RDKit          3D

 17 17  0  0  0  0  0  0  0  0999 V2000
    5.1446  107.1463   26.2245 C   0  0  0  0  0  0  0  0  0  0  0  0
    6.4433  107.8933   26.1348 C   0  0  0  0  0  0  0  0  0  0  0  0
   -0.7133  107.6218   21.7081 C   0  0  0  0  0  0  0  0  0  0  0  0
    2.9940  106.7778   24.3881 C   0  0  0  0  0  0  0  0  0  0  0  0
    4.2524  107.4679   25.2023 C   0  0  0  0  0  0  0  0  0  0  0  0
    1.3893  105.3084   23.4928 O   0  0  0  0  0  0  0  0  0  0  0  0
   -2.9487  109.0042   18.7253 C   0  0  0  0  0  0  0  0  0  0  0  0
   -1.4765  108.3403   19.3377 C   0  0  0  0  0  0  0  0  0  0  0  0
   -0.1702  107.1560   22.9536 N   0  0  0  0  0  0  0  0  0  0  0  0
   -1.3822  107.8986   19.7550 O   0  0  0  0  0  0  0  0  0  0  0  0
    6.4966  109.1945   25.7648 C   0  0  0  0  0  0  0  0  0  0  0  0
    7.3085  110.0490   26.0395 N   0  0  0  0  0  0  0  0  0  0  0  0
    4.6079  108.6239   24.3655 C   0  0  0  0  0  0  0  0  0  0  0  0
    1.8615  107.1286   24.2602 N   0  0  0  0  0  0  0  0  0  0  0  0
    0.7376  106.5086   23.3538 C   0  0  0  0  0  0  0  0  0  0  0  0
   -0.9339  108.9606   21.5809 O   0  0  0  0  0  0  0  0  0  0  0  0
    5.6639  109.2977   24.6973 C   0  0  0  0  0  0  0  0  0  0  0  0
  2  1  2  0
  5  1  1  0
  5  4  1  0
  8  7  1  0
  9  3  1  0
 10  3  1  0
 10  8  1  0
 11  2  1  0
 12 11  1  0
 13  5  2  0
 14  4  1  0
 15  6  2  0
 15  9  1  0
 15 14  1  0
 16  3  2  0
 17 11  2  0
 17 13  1  0
M  END
>  <ID>  (1) 
conformer_0

$$$$
