
     RDKit          3D

 17 17  0  0  0  0  0  0  0  0999 V2000
    3.9545  107.3263   24.9079 C   0  0  0  0  0  0  0  0  0  0  0  0
    5.7792  107.7953   26.2755 C   0  0  0  0  0  0  0  0  0  0  0  0
    0.4116  106.4453   22.8245 C   0  0  0  0  0  0  0  0  0  0  0  0
    2.6099  106.6546   24.2553 C   0  0  0  0  0  0  0  0  0  0  0  0
   -2.6879  109.1861   18.8998 C   0  0  0  0  0  0  0  0  0  0  0  0
   -1.4407  108.6225   19.6864 C   0  0  0  0  0  0  0  0  0  0  0  0
    5.2980  109.0876   24.5069 C   0  0  0  0  0  0  0  0  0  0  0  0
    6.2062  108.8509   25.4914 C   0  0  0  0  0  0  0  0  0  0  0  0
    2.2392  105.7308   22.9893 O   0  0  0  0  0  0  0  0  0  0  0  0
    1.6288  106.9354   24.4651 N   0  0  0  0  0  0  0  0  0  0  0  0
   -1.1914  107.7487   20.1036 O   0  0  0  0  0  0  0  0  0  0  0  0
    7.2391  109.5996   25.7797 N   0  0  0  0  0  0  0  0  0  0  0  0
    4.2965  108.4014   24.0898 C   0  0  0  0  0  0  0  0  0  0  0  0
   -0.7178  109.0513   21.5708 O   0  0  0  0  0  0  0  0  0  0  0  0
    0.1100  106.9327   22.8997 N   0  0  0  0  0  0  0  0  0  0  0  0
   -0.7052  107.4174   21.5880 C   0  0  0  0  0  0  0  0  0  0  0  0
    4.6166  107.0033   26.0667 C   0  0  0  0  0  0  0  0  0  0  0  0
  4  1  1  0
  6  5  1  0
  8  2  1  0
  8  7  2  0
  9  3  1  0
  9  4  1  0
 10  4  1  0
 11  6  1  0
 12  8  1  0
 13  1  2  0
 13  7  1  0
 15  3  1  0
 16 11  1  0
 16 14  2  0
 16 15  1  0
 17  1  1  0
 17  2  2  0
M  END
>  <ID>  (1) 
conformer_0

$$$$
