
     RDKit          3D

 16 16  0  0  0  0  0  0  0  0999 V2000
    4.1819  107.8860   24.4935 C   0  0  0  0  0  0  0  0  0  0  0  0
    5.7829  107.7671   26.1862 C   0  0  0  0  0  0  0  0  0  0  0  0
    0.3805  106.5651   22.8288 C   0  0  0  0  0  0  0  0  0  0  0  0
    2.7031  106.6602   24.1830 C   0  0  0  0  0  0  0  0  0  0  0  0
   -2.5022  108.9998   18.5005 C   0  0  0  0  0  0  0  0  0  0  0  0
   -0.5275  109.0809   22.2842 O   0  0  0  0  0  0  0  0  0  0  0  0
    1.8795  106.9370   24.3900 N   0  0  0  0  0  0  0  0  0  0  0  0
    6.8752  110.0390   25.5883 N   0  0  0  0  0  0  0  0  0  0  0  0
    5.0394  108.9391   24.3830 C   0  0  0  0  0  0  0  0  0  0  0  0
    0.9707  105.3397   22.9811 O   0  0  0  0  0  0  0  0  0  0  0  0
    6.0574  109.0061   25.4092 C   0  0  0  0  0  0  0  0  0  0  0  0
   -0.7608  107.5585   21.6022 C   0  0  0  0  0  0  0  0  0  0  0  0
   -1.3803  107.7921   20.0536 O   0  0  0  0  0  0  0  0  0  0  0  0
    4.5192  107.0299   25.7592 C   0  0  0  0  0  0  0  0  0  0  0  0
   -1.4025  108.3851   19.5686 C   0  0  0  0  0  0  0  0  0  0  0  0
    0.4363  107.1329   22.9016 N   0  0  0  0  0  0  0  0  0  0  0  0
  4  1  1  0
  7  4  1  0
  9  1  2  0
 10  3  1  0
 10  4  1  0
 11  2  2  0
 11  8  1  0
 11  9  1  0
 12  6  2  0
 13 12  1  0
 14  1  1  0
 14  2  1  0
 15  5  1  0
 15 13  1  0
 16  3  1  0
 16 12  1  0
M  END
>  <ID>  (1) 
conformer_0

$$$$
