
     RDKit          3D

 18 19  0  0  0  0  0  0  0  0999 V2000
    5.9495  107.9279   26.2978 C   0  0  0  0  0  0  0  0  0  0  0  0
    4.2223  108.2354   24.2368 C   0  0  0  0  0  0  0  0  0  0  0  0
   -0.6477  107.7498   21.5667 C   0  0  0  0  0  0  0  0  0  0  0  0
    2.6213  106.5221   24.0583 C   0  0  0  0  0  0  0  0  0  0  0  0
    0.5607  107.3208   23.1413 N   0  0  0  0  0  0  0  0  0  0  0  0
   -2.7432  108.9004   18.7665 C   0  0  0  0  0  0  0  0  0  0  0  0
   -1.3809  108.4977   19.5275 C   0  0  0  0  0  0  0  0  0  0  0  0
    5.3345  109.0139   24.5557 C   0  0  0  0  0  0  0  0  0  0  0  0
    6.1645  108.9139   25.6362 C   0  0  0  0  0  0  0  0  0  0  0  0
    7.1891  109.8355   25.9642 N   0  0  0  0  0  0  0  0  0  0  0  0
    2.4586  105.5200   23.0987 O   0  0  0  0  0  0  0  0  0  0  0  0
   -1.1087  107.3961   20.5553 O   0  0  0  0  0  0  0  0  0  0  0  0
    4.0082  107.1820   25.0801 C   0  0  0  0  0  0  0  0  0  0  0  0
    4.6727  106.9025   26.2886 C   0  0  0  0  0  0  0  0  0  0  0  0
    0.1711  105.3642   22.7824 O   0  0  0  0  0  0  0  0  0  0  0  0
    0.2654  106.6035   22.9424 C   0  0  0  0  0  0  0  0  0  0  0  0
    1.8170  106.5870   24.6394 N   0  0  0  0  0  0  0  0  0  0  0  0
   -1.1022  109.2095   20.7796 O   0  0  0  0  0  0  0  0  0  0  0  0
  7  6  1  0
  8  2  2  0
  9  1  2  0
  9  8  1  0
 10  9  1  0
 11  4  1  0
 12  3  1  0
 12  7  1  0
 13  2  1  0
 13  4  1  0
 14  1  1  0
 14 13  2  0
 16  3  1  0
 16  4  1  0
 16  5  1  0
 16 15  1  0
 17  4  1  0
 18  3  1  0
 18  7  1  0
M  END
>  <ID>  (1) 
conformer_0

$$$$
