
     RDKit          3D

 17 17  0  0  0  0  0  0  0  0999 V2000
    3.9982  107.1328   25.1502 C   0  0  0  0  0  0  0  0  0  0  0  0
    4.1435  108.1048   24.1169 C   0  0  0  0  0  0  0  0  0  0  0  0
   -0.8905  107.9336   21.5853 C   0  0  0  0  0  0  0  0  0  0  0  0
    2.4511  106.5324   24.1761 C   0  0  0  0  0  0  0  0  0  0  0  0
    5.8762  109.0877   25.1974 C   0  0  0  0  0  0  0  0  0  0  0  0
    5.0637  109.0145   24.2133 C   0  0  0  0  0  0  0  0  0  0  0  0
   -1.1445  108.3887   19.2890 C   0  0  0  0  0  0  0  0  0  0  0  0
    0.8332  105.4129   22.8933 O   0  0  0  0  0  0  0  0  0  0  0  0
    1.8233  106.6542   24.8508 N   0  0  0  0  0  0  0  0  0  0  0  0
   -1.1410  108.1006   20.0259 O   0  0  0  0  0  0  0  0  0  0  0  0
   -2.6995  109.0735   18.5375 C   0  0  0  0  0  0  0  0  0  0  0  0
    6.7304  110.1474   25.3938 N   0  0  0  0  0  0  0  0  0  0  0  0
    4.8264  107.0428   26.2204 C   0  0  0  0  0  0  0  0  0  0  0  0
   -0.9582  108.9972   22.0124 O   0  0  0  0  0  0  0  0  0  0  0  0
    0.1475  106.7456   22.9040 C   0  0  0  0  0  0  0  0  0  0  0  0
    0.5554  107.2399   23.3251 N   0  0  0  0  0  0  0  0  0  0  0  0
    5.9198  108.0522   26.1610 C   0  0  0  0  0  0  0  0  0  0  0  0
  2  1  2  0
  4  1  1  0
  6  2  1  0
  6  5  2  0
  9  4  1  0
 10  3  1  0
 10  7  1  0
 11  7  1  0
 12  5  1  0
 13  1  1  0
 14  3  2  0
 15  3  1  0
 15  4  1  0
 15  8  1  0
 16 15  1  0
 17  5  1  0
 17 13  2  0
M  END
>  <ID>  (1) 
conformer_0

$$$$
