
     RDKit          3D

 16 17  0  0  0  0  0  0  0  0999 V2000
    4.2498  108.2382   24.0954 C   0  0  0  0  0  0  0  0  0  0  0  0
    6.0284  108.0914   26.2249 C   0  0  0  0  0  0  0  0  0  0  0  0
   -0.9408  107.3309   21.7563 C   0  0  0  0  0  0  0  0  0  0  0  0
    2.7541  106.4587   24.3318 C   0  0  0  0  0  0  0  0  0  0  0  0
   -2.4644  108.8903   18.6249 C   0  0  0  0  0  0  0  0  0  0  0  0
    1.1562  106.9664   23.8151 N   0  0  0  0  0  0  0  0  0  0  0  0
    5.9681  109.1000   25.5060 C   0  0  0  0  0  0  0  0  0  0  0  0
   -1.3391  108.3946   19.7444 C   0  0  0  0  0  0  0  0  0  0  0  0
    5.1918  109.1597   24.3996 C   0  0  0  0  0  0  0  0  0  0  0  0
    1.5108  105.4458   22.8152 O   0  0  0  0  0  0  0  0  0  0  0  0
   -1.1841  107.4469   20.1598 O   0  0  0  0  0  0  0  0  0  0  0  0
    6.8670  110.0966   25.7739 N   0  0  0  0  0  0  0  0  0  0  0  0
    4.1108  107.1802   25.0798 C   0  0  0  0  0  0  0  0  0  0  0  0
    4.9734  107.0390   26.1927 C   0  0  0  0  0  0  0  0  0  0  0  0
    0.3440  106.5306   22.8600 C   0  0  0  0  0  0  0  0  0  0  0  0
   -0.6952  108.7392   21.4115 O   0  0  0  0  0  0  0  0  0  0  0  0
  6  4  1  0
  7  2  2  0
  8  5  1  0
  9  1  2  0
  9  7  1  0
 11  3  1  0
 11  8  1  0
 12  7  1  0
 13  1  1  0
 13  4  1  0
 14  2  1  0
 14 13  2  0
 15  3  1  0
 15  6  1  0
 15 10  2  0
 16  3  1  0
 16  8  1  0
M  END
>  <ID>  (1) 
conformer_0

$$$$
