
     RDKit          3D

 17 18  0  0  0  0  0  0  0  0999 V2000
    4.2524  108.3189   24.0464 C   0  0  0  0  0  0  0  0  0  0  0  0
    5.2526  109.1039   24.4442 C   0  0  0  0  0  0  0  0  0  0  0  0
    0.2966  106.4219   22.7137 C   0  0  0  0  0  0  0  0  0  0  0  0
    2.4975  106.6331   24.1030 C   0  0  0  0  0  0  0  0  0  0  0  0
    5.8231  108.1333   26.3838 C   0  0  0  0  0  0  0  0  0  0  0  0
   -0.1719  107.1761   22.7902 N   0  0  0  0  0  0  0  0  0  0  0  0
   -1.0171  109.2918   21.1329 O   0  0  0  0  0  0  0  0  0  0  0  0
    6.9750  109.9087   25.6796 N   0  0  0  0  0  0  0  0  0  0  0  0
    6.0469  109.0121   25.4666 C   0  0  0  0  0  0  0  0  0  0  0  0
    2.1000  105.6775   23.3001 O   0  0  0  0  0  0  0  0  0  0  0  0
   -2.5350  109.0354   18.5266 C   0  0  0  0  0  0  0  0  0  0  0  0
   -0.9390  107.5441   21.6648 C   0  0  0  0  0  0  0  0  0  0  0  0
    3.9038  107.2776   24.9548 C   0  0  0  0  0  0  0  0  0  0  0  0
    4.6500  107.1401   26.1797 C   0  0  0  0  0  0  0  0  0  0  0  0
   -1.3578  108.5192   19.6847 C   0  0  0  0  0  0  0  0  0  0  0  0
    1.4407  107.1773   23.8529 N   0  0  0  0  0  0  0  0  0  0  0  0
   -1.5104  107.8122   20.1198 O   0  0  0  0  0  0  0  0  0  0  0  0
  2  1  2  0
  6  3  1  0
  9  2  1  0
  9  5  2  0
  9  8  1  0
 10  4  2  0
 12  6  1  0
 12  7  1  0
 13  1  1  0
 13  4  1  0
 14  5  1  0
 14 13  2  0
 15  7  1  0
 15 11  1  0
 16  3  1  0
 16  4  1  0
 17 12  1  0
 17 15  1  0
M  END
>  <ID>  (1) 
conformer_0

$$$$
