
     RDKit          3D

 17 17  0  0  0  0  0  0  0  0999 V2000
    4.2175  107.8820   24.5732 C   0  0  0  0  0  0  0  0  0  0  0  0
    5.9527  107.4723   26.0969 C   0  0  0  0  0  0  0  0  0  0  0  0
   -0.9662  108.0931   21.1339 C   0  0  0  0  0  0  0  0  0  0  0  0
   -0.9200  108.5033   19.0884 C   0  0  0  0  0  0  0  0  0  0  0  0
    1.8983  106.8764   24.5900 N   0  0  0  0  0  0  0  0  0  0  0  0
    2.9910  106.7091   24.5298 C   0  0  0  0  0  0  0  0  0  0  0  0
    6.2048  108.8556   25.5449 C   0  0  0  0  0  0  0  0  0  0  0  0
   -1.2100  107.4961   19.9872 O   0  0  0  0  0  0  0  0  0  0  0  0
    5.0798  108.9144   24.4673 C   0  0  0  0  0  0  0  0  0  0  0  0
    0.9366  105.6035   22.8555 O   0  0  0  0  0  0  0  0  0  0  0  0
   -2.3093  109.0125   18.4921 C   0  0  0  0  0  0  0  0  0  0  0  0
    7.0921  109.7353   25.8538 N   0  0  0  0  0  0  0  0  0  0  0  0
   -0.9985  109.2608   21.4757 O   0  0  0  0  0  0  0  0  0  0  0  0
   -0.1845  107.2399   23.2833 N   0  0  0  0  0  0  0  0  0  0  0  0
    4.5929  106.9261   25.7383 C   0  0  0  0  0  0  0  0  0  0  0  0
   -0.8210  107.2429   22.6646 C   0  0  0  0  0  0  0  0  0  0  0  0
    0.9581  106.3884   23.4342 C   0  0  0  0  0  0  0  0  0  0  0  0
  6  1  1  0
  6  5  1  0
  7  2  2  0
  8  3  1  0
  8  4  1  0
  9  1  2  0
  9  7  1  0
 11  4  1  0
 12  7  1  0
 13  3  2  0
 15  1  1  0
 15  2  1  0
 16  3  1  0
 16 14  1  0
 17  5  1  0
 17 10  2  0
 17 14  1  0
M  END
>  <ID>  (1) 
conformer_0

$$$$
