
     RDKit          3D

 17 17  0  0  0  0  0  0  0  0999 V2000
    4.1514  108.2282   24.0954 C   0  0  0  0  0  0  0  0  0  0  0  0
    5.7805  107.9689   26.2449 C   0  0  0  0  0  0  0  0  0  0  0  0
   -0.7501  107.8257   21.4978 C   0  0  0  0  0  0  0  0  0  0  0  0
    2.5284  106.4447   24.2742 C   0  0  0  0  0  0  0  0  0  0  0  0
    5.9737  109.0287   25.3854 C   0  0  0  0  0  0  0  0  0  0  0  0
   -1.4646  108.4849   19.1889 C   0  0  0  0  0  0  0  0  0  0  0  0
    5.0781  109.0534   24.3899 C   0  0  0  0  0  0  0  0  0  0  0  0
   -1.1952  108.2808   19.9987 O   0  0  0  0  0  0  0  0  0  0  0  0
    1.4416  106.9098   24.3787 N   0  0  0  0  0  0  0  0  0  0  0  0
    1.8379  105.1704   23.7508 O   0  0  0  0  0  0  0  0  0  0  0  0
    6.8896  109.9509   25.6013 N   0  0  0  0  0  0  0  0  0  0  0  0
   -0.3354  108.8831   21.8580 O   0  0  0  0  0  0  0  0  0  0  0  0
    4.6494  106.9760   26.1561 C   0  0  0  0  0  0  0  0  0  0  0  0
   -2.8644  109.0705   18.3542 C   0  0  0  0  0  0  0  0  0  0  0  0
    0.1903  106.5486   22.9881 C   0  0  0  0  0  0  0  0  0  0  0  0
   -0.1273  106.8508   22.8082 N   0  0  0  0  0  0  0  0  0  0  0  0
    3.8927  107.1755   25.0419 C   0  0  0  0  0  0  0  0  0  0  0  0
  5  2  2  0
  7  1  2  0
  7  5  1  0
  8  3  1  0
  8  6  1  0
  9  4  1  0
 10  4  2  0
 11  5  1  0
 12  3  2  0
 13  2  1  0
 14  6  1  0
 15  9  1  0
 16  3  1  0
 16 15  1  0
 17  1  1  0
 17  4  1  0
 17 13  2  0
M  END
>  <ID>  (1) 
conformer_0

$$$$
