
     RDKit          3D

 16 16  0  0  0  0  0  0  0  0999 V2000
    6.1325  108.1531   26.0760 C   0  0  0  0  0  0  0  0  0  0  0  0
    5.1427  107.2396   26.3442 C   0  0  0  0  0  0  0  0  0  0  0  0
   -0.9179  107.6203   21.7060 C   0  0  0  0  0  0  0  0  0  0  0  0
    2.8246  106.5214   24.4002 C   0  0  0  0  0  0  0  0  0  0  0  0
   -2.5664  108.9759   18.5131 C   0  0  0  0  0  0  0  0  0  0  0  0
    4.1678  108.0712   24.2857 C   0  0  0  0  0  0  0  0  0  0  0  0
    1.8013  106.6881   24.4447 N   0  0  0  0  0  0  0  0  0  0  0  0
    5.9607  109.2337   25.2313 C   0  0  0  0  0  0  0  0  0  0  0  0
   -1.2828  108.2547   20.2850 O   0  0  0  0  0  0  0  0  0  0  0  0
    0.9572  105.3448   22.8764 O   0  0  0  0  0  0  0  0  0  0  0  0
   -1.5868  108.4757   19.6188 C   0  0  0  0  0  0  0  0  0  0  0  0
    6.5750  110.3174   25.4220 N   0  0  0  0  0  0  0  0  0  0  0  0
    5.0235  108.9077   24.2535 C   0  0  0  0  0  0  0  0  0  0  0  0
   -0.0822  107.2486   22.9828 N   0  0  0  0  0  0  0  0  0  0  0  0
    0.5568  106.4471   23.0753 C   0  0  0  0  0  0  0  0  0  0  0  0
    4.1307  107.0669   25.3638 C   0  0  0  0  0  0  0  0  0  0  0  0
  2  1  2  0
  7  4  1  0
  8  1  1  0
  9  3  1  0
 11  5  1  0
 11  9  1  0
 12  8  1  0
 13  6  1  0
 13  8  2  0
 14  3  1  0
 15  7  1  0
 15 10  2  0
 15 14  1  0
 16  2  1  0
 16  4  1  0
 16  6  2  0
M  END
>  <ID>  (1) 
conformer_0

$$$$
