
     RDKit          3D

 16 16  0  0  0  0  0  0  0  0999 V2000
    4.7214  107.0374   25.6629 C   0  0  0  0  0  0  0  0  0  0  0  0
    5.8514  107.8485   26.0195 C   0  0  0  0  0  0  0  0  0  0  0  0
    0.1054  106.5703   22.7609 C   0  0  0  0  0  0  0  0  0  0  0  0
    2.6260  106.7348   23.9727 C   0  0  0  0  0  0  0  0  0  0  0  0
    2.1903  106.9880   23.8559 N   0  0  0  0  0  0  0  0  0  0  0  0
    5.8531  109.1540   25.3272 C   0  0  0  0  0  0  0  0  0  0  0  0
   -1.4717  107.9877   20.2584 O   0  0  0  0  0  0  0  0  0  0  0  0
   -0.8551  107.5114   21.7852 C   0  0  0  0  0  0  0  0  0  0  0  0
    1.2864  105.3567   22.7319 O   0  0  0  0  0  0  0  0  0  0  0  0
    4.1328  107.8425   24.4250 C   0  0  0  0  0  0  0  0  0  0  0  0
   -2.5814  108.8447   18.5806 C   0  0  0  0  0  0  0  0  0  0  0  0
    6.5709  110.1481   25.5124 N   0  0  0  0  0  0  0  0  0  0  0  0
   -0.5890  109.0595   21.9628 O   0  0  0  0  0  0  0  0  0  0  0  0
    4.8933  109.0027   24.2108 C   0  0  0  0  0  0  0  0  0  0  0  0
   -1.4220  108.3706   19.6350 C   0  0  0  0  0  0  0  0  0  0  0  0
    0.2686  107.1510   23.4007 N   0  0  0  0  0  0  0  0  0  0  0  0
  2  1  2  0
  5  4  1  0
  6  2  1  0
  8  3  1  0
  8  7  1  0
  9  3  1  0
  9  4  1  0
 10  1  1  0
 10  4  1  0
 12  6  1  0
 13  8  2  0
 14  6  2  0
 14 10  1  0
 15  7  1  0
 15 11  1  0
 16  3  1  0
M  END
>  <ID>  (1) 
conformer_0

$$$$
