
     RDKit          3D

 16 16  0  0  0  0  0  0  0  0999 V2000
    3.9546  107.2752   24.9152 C   0  0  0  0  0  0  0  0  0  0  0  0
    4.7954  106.9628   25.9779 C   0  0  0  0  0  0  0  0  0  0  0  0
    0.3576  106.5973   22.7934 C   0  0  0  0  0  0  0  0  0  0  0  0
    2.5510  106.5025   24.2647 C   0  0  0  0  0  0  0  0  0  0  0  0
   -0.9511  108.8948   20.8859 O   0  0  0  0  0  0  0  0  0  0  0  0
   -2.4122  108.8666   18.5545 C   0  0  0  0  0  0  0  0  0  0  0  0
    1.6430  107.0561   24.0819 N   0  0  0  0  0  0  0  0  0  0  0  0
    6.0797  107.7266   25.9180 C   0  0  0  0  0  0  0  0  0  0  0  0
    6.0911  108.9683   25.4892 C   0  0  0  0  0  0  0  0  0  0  0  0
    1.4765  105.2656   23.2736 O   0  0  0  0  0  0  0  0  0  0  0  0
   -0.6065  107.4863   21.5281 C   0  0  0  0  0  0  0  0  0  0  0  0
    6.9132  109.9548   26.0050 N   0  0  0  0  0  0  0  0  0  0  0  0
    5.2406  109.1742   24.3900 C   0  0  0  0  0  0  0  0  0  0  0  0
    4.2421  108.3868   24.0198 C   0  0  0  0  0  0  0  0  0  0  0  0
   -1.4214  108.3514   19.7330 C   0  0  0  0  0  0  0  0  0  0  0  0
   -0.1504  107.2415   23.0641 N   0  0  0  0  0  0  0  0  0  0  0  0
  2  1  2  0
  4  1  1  0
  7  3  1  0
  7  4  1  0
  8  2  1  0
  9  8  2  0
 10  3  1  0
 11  5  1  0
 12  9  1  0
 13  9  1  0
 14  1  1  0
 14 13  2  0
 15  5  1  0
 15  6  1  0
 16  3  1  0
 16 11  1  0
M  END
>  <ID>  (1) 
conformer_0

$$$$
