
     RDKit          3D

 17 17  0  0  0  0  0  0  0  0999 V2000
    6.1582  108.1506   26.0637 C   0  0  0  0  0  0  0  0  0  0  0  0
    5.2481  107.1057   26.1661 C   0  0  0  0  0  0  0  0  0  0  0  0
    0.3842  106.6543   22.9830 C   0  0  0  0  0  0  0  0  0  0  0  0
    2.8325  106.6522   24.1728 C   0  0  0  0  0  0  0  0  0  0  0  0
   -2.7378  108.7556   18.6278 C   0  0  0  0  0  0  0  0  0  0  0  0
    1.9438  106.8501   24.1101 N   0  0  0  0  0  0  0  0  0  0  0  0
   -1.2649  107.4883   20.3497 O   0  0  0  0  0  0  0  0  0  0  0  0
    4.1592  107.0902   25.2935 C   0  0  0  0  0  0  0  0  0  0  0  0
   -1.6253  108.3833   19.4650 C   0  0  0  0  0  0  0  0  0  0  0  0
    5.8053  109.3295   25.3976 C   0  0  0  0  0  0  0  0  0  0  0  0
    6.4836  110.3205   25.5169 N   0  0  0  0  0  0  0  0  0  0  0  0
    4.9983  109.0807   24.3572 C   0  0  0  0  0  0  0  0  0  0  0  0
    0.4816  105.6854   22.6286 O   0  0  0  0  0  0  0  0  0  0  0  0
   -0.9386  107.4378   21.5856 C   0  0  0  0  0  0  0  0  0  0  0  0
    0.2300  107.3070   23.1034 N   0  0  0  0  0  0  0  0  0  0  0  0
    4.1426  108.1429   24.2520 C   0  0  0  0  0  0  0  0  0  0  0  0
   -0.8763  109.1599   20.6842 O   0  0  0  0  0  0  0  0  0  0  0  0
  2  1  2  0
  6  3  1  0
  6  4  1  0
  8  2  1  0
  8  4  1  0
  9  5  1  0
  9  7  1  0
 10  1  1  0
 11 10  1  0
 12 10  2  0
 13  3  1  0
 14  3  1  0
 14  7  1  0
 15  3  1  0
 16  8  2  0
 16 12  1  0
 17  9  2  0
M  END
>  <ID>  (1) 
conformer_0

$$$$
