
     RDKit          3D

 18 18  0  0  0  0  0  0  0  0999 V2000
    5.1346  107.1083   26.3330 C   0  0  0  0  0  0  0  0  0  0  0  0
    4.1435  108.2033   24.2883 C   0  0  0  0  0  0  0  0  0  0  0  0
   -0.6595  107.5954   21.5733 C   0  0  0  0  0  0  0  0  0  0  0  0
    2.6012  106.5162   24.4574 C   0  0  0  0  0  0  0  0  0  0  0  0
   -1.3480  108.5428   19.3904 C   0  0  0  0  0  0  0  0  0  0  0  0
    6.3113  107.9273   26.2327 C   0  0  0  0  0  0  0  0  0  0  0  0
    6.1408  108.9681   25.3421 C   0  0  0  0  0  0  0  0  0  0  0  0
    1.6562  106.8459   24.7603 N   0  0  0  0  0  0  0  0  0  0  0  0
    2.7564  105.4961   23.7453 O   0  0  0  0  0  0  0  0  0  0  0  0
   -1.4528  108.1398   20.0334 O   0  0  0  0  0  0  0  0  0  0  0  0
   -3.1418  109.1276   18.7638 C   0  0  0  0  0  0  0  0  0  0  0  0
    7.0499  109.8037   25.4307 N   0  0  0  0  0  0  0  0  0  0  0  0
    5.0564  109.0953   24.5447 C   0  0  0  0  0  0  0  0  0  0  0  0
    0.3158  106.4734   23.0509 C   0  0  0  0  0  0  0  0  0  0  0  0
   -0.7268  109.2561   21.6296 O   0  0  0  0  0  0  0  0  0  0  0  0
    0.9156  105.5574   22.4511 O   0  0  0  0  0  0  0  0  0  0  0  0
    0.1467  107.2600   22.9040 N   0  0  0  0  0  0  0  0  0  0  0  0
    4.1430  107.1988   25.4034 C   0  0  0  0  0  0  0  0  0  0  0  0
  6  1  2  0
  7  6  1  0
  8  4  1  0
  9  4  1  0
 10  3  1  0
 10  5  1  0
 11  5  1  0
 12  7  1  0
 13  2  1  0
 13  7  2  0
 14  4  1  0
 15  3  2  0
 16 14  1  0
 17  3  1  0
 17 14  1  0
 18  1  1  0
 18  2  2  0
 18  4  1  0
M  END
>  <ID>  (1) 
conformer_0

$$$$
