
     RDKit          3D

 16 16  0  0  0  0  0  0  0  0999 V2000
    4.9809  108.8073   24.5693 C   0  0  0  0  0  0  0  0  0  0  0  0
    4.0455  107.7495   24.5305 C   0  0  0  0  0  0  0  0  0  0  0  0
   -0.9078  107.8192   21.4414 C   0  0  0  0  0  0  0  0  0  0  0  0
    2.5253  106.5633   24.1182 C   0  0  0  0  0  0  0  0  0  0  0  0
    5.9911  107.3633   26.0656 C   0  0  0  0  0  0  0  0  0  0  0  0
    1.6164  106.8970   24.3234 N   0  0  0  0  0  0  0  0  0  0  0  0
    6.2512  108.7150   25.5204 C   0  0  0  0  0  0  0  0  0  0  0  0
    1.7583  105.6437   22.6993 O   0  0  0  0  0  0  0  0  0  0  0  0
    7.2629  109.6649   25.7267 N   0  0  0  0  0  0  0  0  0  0  0  0
   -1.7544  107.9072   19.8037 O   0  0  0  0  0  0  0  0  0  0  0  0
   -1.8410  108.5142   19.5332 C   0  0  0  0  0  0  0  0  0  0  0  0
   -3.1552  109.2155   18.5860 C   0  0  0  0  0  0  0  0  0  0  0  0
    4.5779  106.7576   25.6492 C   0  0  0  0  0  0  0  0  0  0  0  0
   -0.9165  109.4777   20.9861 O   0  0  0  0  0  0  0  0  0  0  0  0
    0.2996  106.9133   22.6816 C   0  0  0  0  0  0  0  0  0  0  0  0
    0.0578  107.4414   23.0252 N   0  0  0  0  0  0  0  0  0  0  0  0
  2  1  2  0
  4  2  1  0
  6  4  1  0
  7  1  1  0
  7  5  1  0
  8  4  1  0
  9  7  1  0
 10  3  1  0
 11 10  1  0
 12 11  1  0
 13  2  1  0
 13  5  2  0
 14  3  2  0
 15  8  1  0
 16  3  1  0
 16 15  1  0
M  END
>  <ID>  (1) 
conformer_0

$$$$
