
     RDKit          3D

 17 17  0  0  0  0  0  0  0  0999 V2000
    6.1654  107.7482   26.3794 C   0  0  0  0  0  0  0  0  0  0  0  0
   -0.8538  107.8762   21.0929 C   0  0  0  0  0  0  0  0  0  0  0  0
    4.1079  107.2880   25.1640 C   0  0  0  0  0  0  0  0  0  0  0  0
    4.4411  108.3930   24.3353 C   0  0  0  0  0  0  0  0  0  0  0  0
   -1.3697  108.4685   19.0707 C   0  0  0  0  0  0  0  0  0  0  0  0
    2.6891  106.6884   24.3077 C   0  0  0  0  0  0  0  0  0  0  0  0
    6.3338  109.0028   25.7258 C   0  0  0  0  0  0  0  0  0  0  0  0
    1.3954  105.5608   23.1051 O   0  0  0  0  0  0  0  0  0  0  0  0
   -1.2147  107.7237   19.6176 O   0  0  0  0  0  0  0  0  0  0  0  0
    1.0384  107.1841   23.8920 N   0  0  0  0  0  0  0  0  0  0  0  0
    7.2537  109.8682   26.0420 N   0  0  0  0  0  0  0  0  0  0  0  0
   -2.4827  108.9518   18.3173 C   0  0  0  0  0  0  0  0  0  0  0  0
    4.9449  106.9217   26.1693 C   0  0  0  0  0  0  0  0  0  0  0  0
   -1.0818  107.2284   22.3564 C   0  0  0  0  0  0  0  0  0  0  0  0
   -0.4513  108.5250   21.1428 O   0  0  0  0  0  0  0  0  0  0  0  0
    5.3996  109.1591   24.7091 C   0  0  0  0  0  0  0  0  0  0  0  0
    0.5827  106.4839   23.0580 C   0  0  0  0  0  0  0  0  0  0  0  0
  4  3  1  0
  6  3  1  0
  7  1  2  0
  9  2  1  0
  9  5  1  0
 10  6  1  0
 11  7  1  0
 12  5  1  0
 13  1  1  0
 13  3  2  0
 14  2  1  0
 15  2  2  0
 16  4  2  0
 16  7  1  0
 17  8  2  0
 17 10  1  0
 17 14  1  0
M  END
>  <ID>  (1) 
conformer_0

$$$$
