
     RDKit          3D

 17 17  0  0  0  0  0  0  0  0999 V2000
    5.7242  108.1204   26.3695 C   0  0  0  0  0  0  0  0  0  0  0  0
    3.9716  107.1971   24.9364 C   0  0  0  0  0  0  0  0  0  0  0  0
   -1.1262  107.5068   21.6440 C   0  0  0  0  0  0  0  0  0  0  0  0
   -2.6061  108.8792   18.6020 C   0  0  0  0  0  0  0  0  0  0  0  0
    2.6934  106.4100   24.2009 C   0  0  0  0  0  0  0  0  0  0  0  0
    5.1786  109.0223   24.4141 C   0  0  0  0  0  0  0  0  0  0  0  0
    6.0465  109.1053   25.5146 C   0  0  0  0  0  0  0  0  0  0  0  0
    0.1998  107.0520   23.1371 N   0  0  0  0  0  0  0  0  0  0  0  0
    6.9657  110.0666   25.8420 N   0  0  0  0  0  0  0  0  0  0  0  0
   -1.1940  109.1364   20.7895 O   0  0  0  0  0  0  0  0  0  0  0  0
    1.6074  105.3182   23.0228 O   0  0  0  0  0  0  0  0  0  0  0  0
   -1.4732  108.3722   19.6866 C   0  0  0  0  0  0  0  0  0  0  0  0
    4.1559  108.2702   24.0420 C   0  0  0  0  0  0  0  0  0  0  0  0
   -0.9716  106.9738   20.9656 O   0  0  0  0  0  0  0  0  0  0  0  0
    0.5109  106.3563   23.0177 C   0  0  0  0  0  0  0  0  0  0  0  0
    1.8556  106.6502   24.3994 N   0  0  0  0  0  0  0  0  0  0  0  0
    4.6681  107.0725   26.1735 C   0  0  0  0  0  0  0  0  0  0  0  0
  5  2  1  0
  7  1  2  0
  7  6  1  0
  8  3  1  0
  9  7  1  0
 10  3  1  0
 12  4  1  0
 12 10  1  0
 13  2  1  0
 13  6  2  0
 14  3  1  0
 15  8  1  0
 15 11  1  0
 16  5  1  0
 16 15  1  0
 17  1  1  0
 17  2  2  0
M  END
>  <ID>  (1) 
conformer_0

$$$$
