
     RDKit          3D

 18 18  0  0  0  0  0  0  0  0999 V2000
    5.6098  107.8158   26.3701 C   0  0  0  0  0  0  0  0  0  0  0  0
    4.1760  108.0571   24.1136 C   0  0  0  0  0  0  0  0  0  0  0  0
   -0.9112  107.6295   21.4485 C   0  0  0  0  0  0  0  0  0  0  0  0
   -3.1173  109.1933   18.5863 C   0  0  0  0  0  0  0  0  0  0  0  0
    2.5770  106.4030   24.2707 C   0  0  0  0  0  0  0  0  0  0  0  0
    5.7757  108.8803   25.6201 C   0  0  0  0  0  0  0  0  0  0  0  0
    5.1519  108.8571   24.4750 C   0  0  0  0  0  0  0  0  0  0  0  0
   -1.4086  107.5432   20.5046 O   0  0  0  0  0  0  0  0  0  0  0  0
    0.0803  107.5026   22.9948 N   0  0  0  0  0  0  0  0  0  0  0  0
   -1.5230  108.4585   19.4851 C   0  0  0  0  0  0  0  0  0  0  0  0
    1.6585  105.4542   22.9976 O   0  0  0  0  0  0  0  0  0  0  0  0
    6.5719  109.9450   26.1591 N   0  0  0  0  0  0  0  0  0  0  0  0
    3.8813  106.9916   25.0328 C   0  0  0  0  0  0  0  0  0  0  0  0
    4.5969  106.8400   26.2707 C   0  0  0  0  0  0  0  0  0  0  0  0
    1.5896  106.6413   24.3280 N   0  0  0  0  0  0  0  0  0  0  0  0
   -1.1086  108.3234   18.3480 C   0  0  0  0  0  0  0  0  0  0  0  0
    0.3308  106.6667   22.7776 C   0  0  0  0  0  0  0  0  0  0  0  0
   -1.0414  109.2578   20.5120 O   0  0  0  0  0  0  0  0  0  0  0  0
  6  1  2  0
  7  2  2  0
  7  6  1  0
  8  3  1  0
  9  3  1  0
 10  4  1  0
 10  8  1  0
 11  5  1  0
 12  6  1  0
 13  2  1  0
 13  5  1  0
 14  1  1  0
 14 13  2  0
 15  5  1  0
 16 10  1  0
 17  9  1  0
 17 11  1  0
 18 10  1  0
M  END
>  <ID>  (1) 
conformer_0

$$$$
