
     RDKit          3D

 17 17  0  0  0  0  0  0  0  0999 V2000
    4.2667  107.3615   25.2674 C   0  0  0  0  0  0  0  0  0  0  0  0
    6.5962  107.9971   25.9005 C   0  0  0  0  0  0  0  0  0  0  0  0
   -0.7928  107.5096   21.8253 C   0  0  0  0  0  0  0  0  0  0  0  0
    2.6515  106.7684   24.3525 C   0  0  0  0  0  0  0  0  0  0  0  0
    5.5087  109.2575   24.5171 C   0  0  0  0  0  0  0  0  0  0  0  0
   -1.3671  108.3009   19.6694 C   0  0  0  0  0  0  0  0  0  0  0  0
   -2.4027  108.7687   18.5381 C   0  0  0  0  0  0  0  0  0  0  0  0
    1.7004  106.9004   24.8385 N   0  0  0  0  0  0  0  0  0  0  0  0
   -1.4339  108.4091   20.3041 O   0  0  0  0  0  0  0  0  0  0  0  0
    6.6091  109.0569   25.1870 C   0  0  0  0  0  0  0  0  0  0  0  0
    1.4956  105.6258   23.1307 O   0  0  0  0  0  0  0  0  0  0  0  0
    5.3240  107.1800   26.0340 C   0  0  0  0  0  0  0  0  0  0  0  0
    0.3623  106.6816   23.2063 C   0  0  0  0  0  0  0  0  0  0  0  0
    7.4829  109.9232   25.2386 N   0  0  0  0  0  0  0  0  0  0  0  0
   -1.1611  106.8985   21.2633 O   0  0  0  0  0  0  0  0  0  0  0  0
    4.4422  108.4735   24.2886 C   0  0  0  0  0  0  0  0  0  0  0  0
    0.3519  107.3923   23.3643 N   0  0  0  0  0  0  0  0  0  0  0  0
  4  1  1  0
  7  6  1  0
  8  4  1  0
  9  3  1  0
  9  6  1  0
 10  2  2  0
 10  5  1  0
 11  4  1  0
 12  1  2  0
 12  2  1  0
 13 11  1  0
 14 10  1  0
 15  3  2  0
 16  1  1  0
 16  5  2  0
 17  3  1  0
 17 13  1  0
M  END
>  <ID>  (1) 
conformer_0

$$$$
