
     RDKit          3D

 18 19  0  0  0  0  0  0  0  0999 V2000
    5.1587  109.0993   24.4092 C   0  0  0  0  0  0  0  0  0  0  0  0
   -1.0120  107.7016   21.3169 C   0  0  0  0  0  0  0  0  0  0  0  0
    4.0921  107.1283   25.1627 C   0  0  0  0  0  0  0  0  0  0  0  0
    6.2406  107.9033   25.8642 C   0  0  0  0  0  0  0  0  0  0  0  0
    2.8397  106.4977   24.4237 C   0  0  0  0  0  0  0  0  0  0  0  0
    7.0243  110.1393   25.6444 N   0  0  0  0  0  0  0  0  0  0  0  0
    6.0868  109.1302   25.3370 C   0  0  0  0  0  0  0  0  0  0  0  0
    2.1268  105.5331   23.2509 O   0  0  0  0  0  0  0  0  0  0  0  0
   -1.1349  106.5930   22.0917 C   0  0  0  0  0  0  0  0  0  0  0  0
   -2.7392  109.0722   18.2528 C   0  0  0  0  0  0  0  0  0  0  0  0
   -1.8205  107.4631   19.8832 O   0  0  0  0  0  0  0  0  0  0  0  0
    1.9903  106.7456   24.9646 N   0  0  0  0  0  0  0  0  0  0  0  0
    4.1773  108.2286   24.1471 C   0  0  0  0  0  0  0  0  0  0  0  0
   -1.8571  108.4430   19.1978 C   0  0  0  0  0  0  0  0  0  0  0  0
   -1.2719  109.0409   20.7111 O   0  0  0  0  0  0  0  0  0  0  0  0
    0.5381  106.9862   23.3178 N   0  0  0  0  0  0  0  0  0  0  0  0
    5.0574  106.9465   26.1269 C   0  0  0  0  0  0  0  0  0  0  0  0
    0.7602  106.5138   23.1377 C   0  0  0  0  0  0  0  0  0  0  0  0
  5  3  1  0
  7  1  2  0
  7  4  1  0
  7  6  1  0
  8  5  1  0
  9  2  1  0
 11  2  1  0
 12  5  1  0
 13  1  1  0
 13  3  2  0
 14 10  1  0
 14 11  1  0
 15  2  1  0
 15 14  1  0
 16  9  1  0
 17  3  1  0
 17  4  2  0
 18  8  1  0
 18 16  1  0
M  END
>  <ID>  (1) 
conformer_0

$$$$
