
     RDKit          3D

 16 16  0  0  0  0  0  0  0  0999 V2000
    3.9028  107.6088   24.5733 C   0  0  0  0  0  0  0  0  0  0  0  0
    4.2445  106.9767   25.8316 C   0  0  0  0  0  0  0  0  0  0  0  0
    0.5349  106.5706   22.8377 C   0  0  0  0  0  0  0  0  0  0  0  0
    2.7091  106.7209   24.0983 C   0  0  0  0  0  0  0  0  0  0  0  0
    1.4278  105.4720   22.9735 O   0  0  0  0  0  0  0  0  0  0  0  0
   -0.9941  108.0532   20.2317 O   0  0  0  0  0  0  0  0  0  0  0  0
    1.9235  107.0120   24.2488 N   0  0  0  0  0  0  0  0  0  0  0  0
    5.8783  108.8738   25.9124 C   0  0  0  0  0  0  0  0  0  0  0  0
    4.4939  108.7880   24.0653 C   0  0  0  0  0  0  0  0  0  0  0  0
   -2.4051  108.7382   18.5107 C   0  0  0  0  0  0  0  0  0  0  0  0
    6.8571  109.6517   26.3479 N   0  0  0  0  0  0  0  0  0  0  0  0
   -0.7737  107.8136   21.8019 C   0  0  0  0  0  0  0  0  0  0  0  0
    0.0107  107.1983   22.8869 N   0  0  0  0  0  0  0  0  0  0  0  0
    5.4832  109.3337   24.8151 C   0  0  0  0  0  0  0  0  0  0  0  0
    5.5425  107.6343   26.3364 C   0  0  0  0  0  0  0  0  0  0  0  0
   -1.3571  108.3281   19.7355 C   0  0  0  0  0  0  0  0  0  0  0  0
  2  1  2  0
  4  1  1  0
  5  3  2  0
  7  3  1  0
  7  4  1  0
  9  1  1  0
 11  8  1  0
 12  6  1  0
 13  3  1  0
 13 12  1  0
 14  8  1  0
 14  9  2  0
 15  2  1  0
 15  8  2  0
 16  6  1  0
 16 10  1  0
M  END
>  <ID>  (1) 
conformer_0

$$$$
