
     RDKit          3D

 17 17  0  0  0  0  0  0  0  0999 V2000
    4.1829  107.1859   24.9391 C   0  0  0  0  0  0  0  0  0  0  0  0
    6.0372  108.0322   26.3149 C   0  0  0  0  0  0  0  0  0  0  0  0
   -0.8358  107.6009   21.7491 C   0  0  0  0  0  0  0  0  0  0  0  0
    2.7450  106.4709   24.3360 C   0  0  0  0  0  0  0  0  0  0  0  0
   -2.4869  108.9487   18.5835 C   0  0  0  0  0  0  0  0  0  0  0  0
   -1.1663  108.4037   19.6443 C   0  0  0  0  0  0  0  0  0  0  0  0
    1.7174  105.3666   23.0589 O   0  0  0  0  0  0  0  0  0  0  0  0
   -1.2350  108.0672   20.2502 O   0  0  0  0  0  0  0  0  0  0  0  0
    1.6615  106.8670   24.4635 N   0  0  0  0  0  0  0  0  0  0  0  0
    5.9623  108.9716   25.6579 C   0  0  0  0  0  0  0  0  0  0  0  0
    5.5786  109.0314   24.4082 C   0  0  0  0  0  0  0  0  0  0  0  0
    6.6852  109.9372   26.0634 N   0  0  0  0  0  0  0  0  0  0  0  0
   -1.0506  108.9647   22.1754 O   0  0  0  0  0  0  0  0  0  0  0  0
    4.7781  107.0416   26.2302 C   0  0  0  0  0  0  0  0  0  0  0  0
    0.3415  106.6190   23.0318 C   0  0  0  0  0  0  0  0  0  0  0  0
   -0.0823  107.0153   23.0391 N   0  0  0  0  0  0  0  0  0  0  0  0
    4.3718  108.4410   24.2053 C   0  0  0  0  0  0  0  0  0  0  0  0
  4  1  1  0
  6  5  1  0
  8  3  1  0
  8  6  1  0
  9  4  1  0
 10  2  2  0
 11 10  1  0
 12 10  1  0
 13  3  2  0
 14  1  2  0
 14  2  1  0
 15  7  2  0
 15  9  1  0
 16  3  1  0
 16 15  1  0
 17  1  1  0
 17 11  2  0
M  END
>  <ID>  (1) 
conformer_0

$$$$
