
     RDKit          3D

 17 17  0  0  0  0  0  0  0  0999 V2000
    6.3670  107.7096   26.0536 C   0  0  0  0  0  0  0  0  0  0  0  0
    5.0909  106.9982   26.0932 C   0  0  0  0  0  0  0  0  0  0  0  0
   -1.2080  107.2947   21.8047 C   0  0  0  0  0  0  0  0  0  0  0  0
   -1.0410  108.4000   19.6283 C   0  0  0  0  0  0  0  0  0  0  0  0
   -1.3938  107.1976   20.7146 O   0  0  0  0  0  0  0  0  0  0  0  0
    4.1001  107.3470   25.2041 C   0  0  0  0  0  0  0  0  0  0  0  0
    6.4020  108.9497   25.3676 C   0  0  0  0  0  0  0  0  0  0  0  0
    2.7530  106.8035   24.1897 C   0  0  0  0  0  0  0  0  0  0  0  0
    0.8224  105.6480   22.5257 O   0  0  0  0  0  0  0  0  0  0  0  0
   -0.2473  107.1564   23.3607 N   0  0  0  0  0  0  0  0  0  0  0  0
    7.3573  109.6951   25.5175 N   0  0  0  0  0  0  0  0  0  0  0  0
   -2.1703  108.7943   18.5174 C   0  0  0  0  0  0  0  0  0  0  0  0
    5.3865  109.2303   24.6511 C   0  0  0  0  0  0  0  0  0  0  0  0
    4.3676  108.4929   24.2358 C   0  0  0  0  0  0  0  0  0  0  0  0
    0.1419  106.4763   22.9167 C   0  0  0  0  0  0  0  0  0  0  0  0
    1.7836  107.0453   24.2510 N   0  0  0  0  0  0  0  0  0  0  0  0
   -0.9874  108.8444   20.7800 O   0  0  0  0  0  0  0  0  0  0  0  0
  2  1  2  0
  5  3  1  0
  5  4  1  0
  6  2  1  0
  7  1  1  0
  8  6  1  0
 10  3  1  0
 11  7  1  0
 12  4  1  0
 13  7  2  0
 14  6  2  0
 14 13  1  0
 15  9  1  0
 15 10  1  0
 16  8  1  0
 16 15  1  0
 17  4  1  0
M  END
>  <ID>  (1) 
conformer_0

$$$$
