
     RDKit          3D

 17 17  0  0  0  0  0  0  0  0999 V2000
    4.8337  106.7572   26.0651 C   0  0  0  0  0  0  0  0  0  0  0  0
    5.2884  109.1578   24.8697 C   0  0  0  0  0  0  0  0  0  0  0  0
   -0.6515  107.5135   21.7087 C   0  0  0  0  0  0  0  0  0  0  0  0
    1.7986  106.8882   24.5706 N   0  0  0  0  0  0  0  0  0  0  0  0
   -1.2449  108.4509   19.5466 C   0  0  0  0  0  0  0  0  0  0  0  0
   -1.2572  107.9305   20.2063 O   0  0  0  0  0  0  0  0  0  0  0  0
    6.1849  107.6408   26.1791 C   0  0  0  0  0  0  0  0  0  0  0  0
   -2.2990  108.8466   18.4240 C   0  0  0  0  0  0  0  0  0  0  0  0
    6.2331  108.7941   25.5642 C   0  0  0  0  0  0  0  0  0  0  0  0
    1.2391  105.4863   22.7901 O   0  0  0  0  0  0  0  0  0  0  0  0
    2.5548  106.7052   24.2882 C   0  0  0  0  0  0  0  0  0  0  0  0
    7.3550  109.6041   25.6404 N   0  0  0  0  0  0  0  0  0  0  0  0
   -0.6374  108.8904   22.2164 O   0  0  0  0  0  0  0  0  0  0  0  0
    3.9519  107.2007   25.2397 C   0  0  0  0  0  0  0  0  0  0  0  0
    4.2503  108.3490   24.2532 C   0  0  0  0  0  0  0  0  0  0  0  0
   -0.0992  106.8433   23.5380 N   0  0  0  0  0  0  0  0  0  0  0  0
    0.2447  106.4617   23.0293 C   0  0  0  0  0  0  0  0  0  0  0  0
  6  3  1  0
  6  5  1  0
  7  1  2  0
  8  5  1  0
  9  2  2  0
  9  7  1  0
 11  4  1  0
 11 10  1  0
 12  9  1  0
 13  3  2  0
 14  1  1  0
 14 11  1  0
 15  2  1  0
 15 14  2  0
 17  3  1  0
 17 10  1  0
 17 16  1  0
M  END
>  <ID>  (1) 
conformer_0

$$$$
