
     RDKit          3D

 18 19  0  0  0  0  0  0  0  0999 V2000
    6.0554  107.8151   26.2341 C   0  0  0  0  0  0  0  0  0  0  0  0
    5.2088  109.2331   24.5950 C   0  0  0  0  0  0  0  0  0  0  0  0
   -1.4283  108.0756   21.2459 C   0  0  0  0  0  0  0  0  0  0  0  0
    2.9838  106.5592   24.7024 C   0  0  0  0  0  0  0  0  0  0  0  0
   -1.0501  108.4163   19.0386 C   0  0  0  0  0  0  0  0  0  0  0  0
    6.0008  108.9221   25.5819 C   0  0  0  0  0  0  0  0  0  0  0  0
   -1.1897  107.6639   20.2589 O   0  0  0  0  0  0  0  0  0  0  0  0
   -0.0004  107.4519   23.1433 N   0  0  0  0  0  0  0  0  0  0  0  0
    2.2186  105.5341   23.2943 O   0  0  0  0  0  0  0  0  0  0  0  0
    4.2265  108.4496   24.0183 C   0  0  0  0  0  0  0  0  0  0  0  0
    6.9413  109.6476   25.9352 N   0  0  0  0  0  0  0  0  0  0  0  0
   -0.5681  107.0967   22.1965 C   0  0  0  0  0  0  0  0  0  0  0  0
    1.7978  106.8511   24.5064 N   0  0  0  0  0  0  0  0  0  0  0  0
    3.9840  107.4064   25.0347 C   0  0  0  0  0  0  0  0  0  0  0  0
    0.3744  105.7849   22.1311 O   0  0  0  0  0  0  0  0  0  0  0  0
   -1.3121  109.4669   20.7443 O   0  0  0  0  0  0  0  0  0  0  0  0
    1.1684  106.3524   23.3663 C   0  0  0  0  0  0  0  0  0  0  0  0
    4.7587  107.0028   26.1582 C   0  0  0  0  0  0  0  0  0  0  0  0
  6  1  2  0
  6  2  1  0
  7  3  1  0
  7  5  1  0
 10  2  2  0
 11  6  1  0
 12  3  1  0
 12  8  1  0
 13  4  1  0
 14  4  1  0
 14 10  1  0
 15 12  1  0
 16  3  1  0
 17  8  1  0
 17  9  1  0
 17 13  1  0
 17 15  1  0
 18  1  1  0
 18 14  2  0
M  END
>  <ID>  (1) 
conformer_0

$$$$
