
     RDKit          3D

 15 15  0  0  0  0  0  0  0  0999 V2000
    4.2230  107.9534   24.5734 C   0  0  0  0  0  0  0  0  0  0  0  0
    4.8053  107.1733   25.7621 C   0  0  0  0  0  0  0  0  0  0  0  0
    6.0795  107.8403   25.9008 C   0  0  0  0  0  0  0  0  0  0  0  0
   -0.7563  107.6468   21.4889 C   0  0  0  0  0  0  0  0  0  0  0  0
    2.8906  106.6551   24.4790 C   0  0  0  0  0  0  0  0  0  0  0  0
    1.5547  106.8273   23.9458 N   0  0  0  0  0  0  0  0  0  0  0  0
    6.2757  109.2072   25.1264 C   0  0  0  0  0  0  0  0  0  0  0  0
   -1.5373  108.5247   19.4189 C   0  0  0  0  0  0  0  0  0  0  0  0
   -2.8718  109.1855   18.4768 C   0  0  0  0  0  0  0  0  0  0  0  0
   -1.6196  107.6839   20.1109 O   0  0  0  0  0  0  0  0  0  0  0  0
    0.1622  105.7424   22.2503 O   0  0  0  0  0  0  0  0  0  0  0  0
   -0.4892  108.4455   22.1029 O   0  0  0  0  0  0  0  0  0  0  0  0
    7.1472  109.9670   25.0084 F   0  0  0  0  0  0  0  0  0  0  0  0
    4.9531  109.0045   24.2868 C   0  0  0  0  0  0  0  0  0  0  0  0
    0.6041  106.5672   23.0393 C   0  0  0  0  0  0  0  0  0  0  0  0
  2  1  2  0
  3  2  1  0
  5  1  1  0
  6  5  1  0
  7  3  2  0
  9  8  1  0
 10  4  1  0
 10  8  1  0
 12  4  2  0
 13  7  1  0
 14  1  1  0
 14  7  1  0
 15  4  1  0
 15  6  1  0
 15 11  2  0
M  END
>  <ID>  (1) 
conformer_0

$$$$
