
     RDKit          3D

 18 18  0  0  0  0  0  0  0  0999 V2000
    5.3474  107.0228   26.3168 C   0  0  0  0  0  0  0  0  0  0  0  0
    6.4385  107.9900   26.2374 C   0  0  0  0  0  0  0  0  0  0  0  0
   -1.5099  107.8876   21.1539 C   0  0  0  0  0  0  0  0  0  0  0  0
    2.9261  106.4525   24.5917 C   0  0  0  0  0  0  0  0  0  0  0  0
   -1.3356  108.5017   19.1696 C   0  0  0  0  0  0  0  0  0  0  0  0
    4.3057  108.1460   24.5387 C   0  0  0  0  0  0  0  0  0  0  0  0
    6.3520  109.0894   25.4437 C   0  0  0  0  0  0  0  0  0  0  0  0
    0.6987  105.2767   22.9384 O   0  0  0  0  0  0  0  0  0  0  0  0
    1.9740  106.4301   24.6882 N   0  0  0  0  0  0  0  0  0  0  0  0
   -1.4920  107.3523   19.9389 O   0  0  0  0  0  0  0  0  0  0  0  0
   -2.6296  109.1998   18.5804 C   0  0  0  0  0  0  0  0  0  0  0  0
    7.1750  110.0125   25.6503 N   0  0  0  0  0  0  0  0  0  0  0  0
   -1.0695  107.0461   22.5181 C   0  0  0  0  0  0  0  0  0  0  0  0
    5.1570  109.1512   24.6269 C   0  0  0  0  0  0  0  0  0  0  0  0
    0.1726  107.1440   23.3628 N   0  0  0  0  0  0  0  0  0  0  0  0
   -1.2467  108.8347   21.3695 O   0  0  0  0  0  0  0  0  0  0  0  0
    0.8572  106.1785   23.3589 C   0  0  0  0  0  0  0  0  0  0  0  0
    4.2571  107.0954   25.5193 C   0  0  0  0  0  0  0  0  0  0  0  0
  2  1  2  0
  7  2  1  0
  9  4  1  0
 10  3  1  0
 10  5  1  0
 11  5  1  0
 12  7  1  0
 13  3  1  0
 14  6  1  0
 14  7  2  0
 15 13  1  0
 16  3  2  0
 17  8  2  0
 17  9  1  0
 17 15  1  0
 18  1  1  0
 18  4  1  0
 18  6  2  0
M  END
>  <ID>  (1) 
conformer_0

$$$$
