
     RDKit          3D

 17 17  0  0  0  0  0  0  0  0999 V2000
    4.3331  108.4797   23.9704 C   0  0  0  0  0  0  0  0  0  0  0  0
    5.7474  107.9721   26.3242 C   0  0  0  0  0  0  0  0  0  0  0  0
   -0.5407  107.5865   21.8529 C   0  0  0  0  0  0  0  0  0  0  0  0
    2.6671  106.5614   24.3362 C   0  0  0  0  0  0  0  0  0  0  0  0
    5.3067  109.2024   24.4752 C   0  0  0  0  0  0  0  0  0  0  0  0
   -0.9288  108.5082   19.6389 C   0  0  0  0  0  0  0  0  0  0  0  0
    6.0878  109.1775   25.5564 C   0  0  0  0  0  0  0  0  0  0  0  0
    1.7761  106.6069   24.4327 N   0  0  0  0  0  0  0  0  0  0  0  0
   -2.2142  108.8527   18.7119 C   0  0  0  0  0  0  0  0  0  0  0  0
   -0.5855  109.1002   22.0643 O   0  0  0  0  0  0  0  0  0  0  0  0
    0.1618  105.2526   22.2815 O   0  0  0  0  0  0  0  0  0  0  0  0
    7.0217  109.9598   25.9480 N   0  0  0  0  0  0  0  0  0  0  0  0
    4.6350  107.1344   26.0003 C   0  0  0  0  0  0  0  0  0  0  0  0
   -0.8950  107.8747   20.3882 O   0  0  0  0  0  0  0  0  0  0  0  0
    0.3232  106.1361   23.0825 C   0  0  0  0  0  0  0  0  0  0  0  0
    0.0834  106.9083   23.2335 N   0  0  0  0  0  0  0  0  0  0  0  0
    3.9385  107.4111   24.8410 C   0  0  0  0  0  0  0  0  0  0  0  0
  5  1  2  0
  7  2  2  0
  7  5  1  0
  8  4  1  0
  9  6  1  0
 10  3  2  0
 12  7  1  0
 13  2  1  0
 14  3  1  0
 14  6  1  0
 15  8  1  0
 15 11  2  0
 16  3  1  0
 16 15  1  0
 17  1  1  0
 17  4  1  0
 17 13  2  0
M  END
>  <ID>  (1) 
conformer_0

$$$$
