
     RDKit          3D

 17 17  0  0  0  0  0  0  0  0999 V2000
    4.3930  108.3270   24.2449 C   0  0  0  0  0  0  0  0  0  0  0  0
    5.3532  109.1750   24.4737 C   0  0  0  0  0  0  0  0  0  0  0  0
   -0.9151  107.3381   21.7502 C   0  0  0  0  0  0  0  0  0  0  0  0
    2.7825  106.7850   24.1359 C   0  0  0  0  0  0  0  0  0  0  0  0
    6.1580  108.3749   26.3212 C   0  0  0  0  0  0  0  0  0  0  0  0
    6.4745  109.2499   25.2855 C   0  0  0  0  0  0  0  0  0  0  0  0
    1.4814  106.9835   24.2295 N   0  0  0  0  0  0  0  0  0  0  0  0
   -1.6712  108.4099   19.7687 C   0  0  0  0  0  0  0  0  0  0  0  0
   -2.7998  109.1131   18.6085 C   0  0  0  0  0  0  0  0  0  0  0  0
    1.5693  105.0810   23.4590 O   0  0  0  0  0  0  0  0  0  0  0  0
   -1.7453  108.0521   20.1054 O   0  0  0  0  0  0  0  0  0  0  0  0
    7.4210  110.0046   25.3746 N   0  0  0  0  0  0  0  0  0  0  0  0
   -0.5654  108.8862   21.9903 O   0  0  0  0  0  0  0  0  0  0  0  0
    4.2660  107.2672   25.2184 C   0  0  0  0  0  0  0  0  0  0  0  0
    0.6372  106.2687   23.1918 C   0  0  0  0  0  0  0  0  0  0  0  0
   -0.0123  106.9839   22.4247 N   0  0  0  0  0  0  0  0  0  0  0  0
    5.1397  107.3685   26.3556 C   0  0  0  0  0  0  0  0  0  0  0  0
  2  1  2  0
  6  2  1  0
  6  5  2  0
  7  4  1  0
  9  8  1  0
 11  3  1  0
 11  8  1  0
 12  6  1  0
 13  3  1  0
 14  1  1  0
 14  4  1  0
 15  7  1  0
 15 10  2  0
 16  3  1  0
 16 15  1  0
 17  5  1  0
 17 14  2  0
M  END
>  <ID>  (1) 
conformer_0

$$$$
