
     RDKit          3D

 14 14  0  0  0  0  0  0  0  0999 V2000
    4.2048  107.5304   24.8987 C   0  0  0  0  0  0  0  0  0  0  0  0
    4.8945  107.2786   26.2287 C   0  0  0  0  0  0  0  0  0  0  0  0
   -0.7361  107.3395   21.7710 C   0  0  0  0  0  0  0  0  0  0  0  0
    2.7495  106.6709   24.3057 C   0  0  0  0  0  0  0  0  0  0  0  0
   -2.5382  109.0609   18.5464 C   0  0  0  0  0  0  0  0  0  0  0  0
    5.8272  109.2685   25.0628 C   0  0  0  0  0  0  0  0  0  0  0  0
    1.1044  107.0543   23.8326 N   0  0  0  0  0  0  0  0  0  0  0  0
    4.7075  108.6583   24.2815 C   0  0  0  0  0  0  0  0  0  0  0  0
    1.1172  105.2505   22.9998 O   0  0  0  0  0  0  0  0  0  0  0  0
   -1.5820  108.4785   19.7907 C   0  0  0  0  0  0  0  0  0  0  0  0
   -1.5502  107.8634   20.1626 O   0  0  0  0  0  0  0  0  0  0  0  0
   -0.7859  109.1205   21.6164 O   0  0  0  0  0  0  0  0  0  0  0  0
    5.9536  108.2507   26.2230 C   0  0  0  0  0  0  0  0  0  0  0  0
    0.6115  106.3220   23.0799 C   0  0  0  0  0  0  0  0  0  0  0  0
  2  1  2  0
  4  1  1  0
  7  4  1  0
  8  1  1  0
  8  6  1  0
 10  5  1  0
 11  3  1  0
 11 10  1  0
 12  3  2  0
 13  2  1  0
 13  6  2  0
 14  3  1  0
 14  7  1  0
 14  9  2  0
M  END
>  <ID>  (1) 
conformer_0

$$$$
