
     RDKit          3D

 18 18  0  0  0  0  0  0  0  0999 V2000
    4.6892  107.0983   26.1254 C   0  0  0  0  0  0  0  0  0  0  0  0
    4.3194  108.3937   24.0148 C   0  0  0  0  0  0  0  0  0  0  0  0
   -0.6852  107.6466   21.8016 C   0  0  0  0  0  0  0  0  0  0  0  0
    2.7985  106.5985   24.3448 C   0  0  0  0  0  0  0  0  0  0  0  0
    6.0354  109.0860   25.4358 C   0  0  0  0  0  0  0  0  0  0  0  0
    5.2762  109.1724   24.3578 C   0  0  0  0  0  0  0  0  0  0  0  0
   -2.5405  108.7782   18.6232 C   0  0  0  0  0  0  0  0  0  0  0  0
    1.9090  106.7888   24.4223 N   0  0  0  0  0  0  0  0  0  0  0  0
   -1.3269  108.3641   19.6026 C   0  0  0  0  0  0  0  0  0  0  0  0
   -1.1671  107.5650   20.1926 O   0  0  0  0  0  0  0  0  0  0  0  0
    1.1397  105.4768   23.0150 O   0  0  0  0  0  0  0  0  0  0  0  0
    6.8470  109.9664   25.8271 N   0  0  0  0  0  0  0  0  0  0  0  0
    4.0339  107.3432   24.8838 C   0  0  0  0  0  0  0  0  0  0  0  0
   -0.6995  109.1786   21.5164 O   0  0  0  0  0  0  0  0  0  0  0  0
   -0.0308  107.1325   23.2174 N   0  0  0  0  0  0  0  0  0  0  0  0
    7.0672  110.1175   25.3078 F   0  0  0  0  0  0  0  0  0  0  0  0
    0.4206  106.4531   23.0430 C   0  0  0  0  0  0  0  0  0  0  0  0
    5.8881  108.0066   26.2198 C   0  0  0  0  0  0  0  0  0  0  0  0
  6  2  2  0
  6  5  1  0
  8  4  1  0
  9  7  1  0
 10  3  1  0
 10  9  1  0
 12  5  1  0
 13  1  2  0
 13  2  1  0
 13  4  1  0
 14  3  2  0
 15  3  1  0
 16 12  1  0
 17  8  1  0
 17 11  1  0
 17 15  1  0
 18  1  1  0
 18  5  2  0
M  END
>  <ID>  (1) 
conformer_0

$$$$
