
     RDKit          3D

 17 17  0  0  0  0  0  0  0  0999 V2000
    4.9547  106.8780   26.3243 C   0  0  0  0  0  0  0  0  0  0  0  0
    6.0508  107.8201   26.0651 C   0  0  0  0  0  0  0  0  0  0  0  0
   -0.7509  107.6912   21.4325 C   0  0  0  0  0  0  0  0  0  0  0  0
   -1.2539  108.4724   19.1657 C   0  0  0  0  0  0  0  0  0  0  0  0
    6.7665  110.0659   25.9281 N   0  0  0  0  0  0  0  0  0  0  0  0
    5.8774  109.0155   25.6084 C   0  0  0  0  0  0  0  0  0  0  0  0
    2.3707  106.5825   24.0023 C   0  0  0  0  0  0  0  0  0  0  0  0
    0.7668  105.2873   22.8872 O   0  0  0  0  0  0  0  0  0  0  0  0
    1.8880  106.7762   24.3084 N   0  0  0  0  0  0  0  0  0  0  0  0
    5.2075  108.9876   24.3881 C   0  0  0  0  0  0  0  0  0  0  0  0
   -1.5037  107.8674   19.7789 O   0  0  0  0  0  0  0  0  0  0  0  0
   -3.0350  108.9648   18.5913 C   0  0  0  0  0  0  0  0  0  0  0  0
    4.0329  107.1760   25.2072 C   0  0  0  0  0  0  0  0  0  0  0  0
   -1.0507  109.0867   21.6294 O   0  0  0  0  0  0  0  0  0  0  0  0
   -0.1875  107.2479   22.3806 N   0  0  0  0  0  0  0  0  0  0  0  0
    0.1186  106.5140   22.8465 C   0  0  0  0  0  0  0  0  0  0  0  0
    4.1821  108.2198   24.0443 C   0  0  0  0  0  0  0  0  0  0  0  0
  2  1  2  0
  6  2  1  0
  6  5  1  0
  9  7  1  0
 10  6  2  0
 11  3  1  0
 11  4  1  0
 12  4  1  0
 13  1  1  0
 13  7  1  0
 14  3  2  0
 15  3  1  0
 16  8  1  0
 16  9  1  0
 16 15  1  0
 17 10  1  0
 17 13  2  0
M  END
>  <ID>  (1) 
conformer_0

$$$$
