
     RDKit          3D

 16 16  0  0  0  0  0  0  0  0999 V2000
    6.0326  107.8917   26.0705 C   0  0  0  0  0  0  0  0  0  0  0  0
    3.9382  107.3072   24.9834 C   0  0  0  0  0  0  0  0  0  0  0  0
   -1.2340  107.4236   21.4622 C   0  0  0  0  0  0  0  0  0  0  0  0
    2.3224  106.6144   24.0609 C   0  0  0  0  0  0  0  0  0  0  0  0
    4.2994  108.3246   24.0765 C   0  0  0  0  0  0  0  0  0  0  0  0
    6.2827  108.9974   25.3175 C   0  0  0  0  0  0  0  0  0  0  0  0
   -1.4259  108.4788   19.3584 C   0  0  0  0  0  0  0  0  0  0  0  0
    1.6272  105.4997   23.2427 O   0  0  0  0  0  0  0  0  0  0  0  0
    1.5779  107.1114   24.2910 N   0  0  0  0  0  0  0  0  0  0  0  0
    7.2638  109.8921   25.6433 N   0  0  0  0  0  0  0  0  0  0  0  0
   -1.4554  107.5072   19.8783 O   0  0  0  0  0  0  0  0  0  0  0  0
    5.3557  109.0501   24.2895 C   0  0  0  0  0  0  0  0  0  0  0  0
   -1.2130  108.8487   21.4446 O   0  0  0  0  0  0  0  0  0  0  0  0
   -0.0030  106.7505   22.7759 C   0  0  0  0  0  0  0  0  0  0  0  0
   -0.3614  107.0036   23.2441 N   0  0  0  0  0  0  0  0  0  0  0  0
    4.7548  107.1382   26.1580 C   0  0  0  0  0  0  0  0  0  0  0  0
  4  2  1  0
  5  2  1  0
  6  1  2  0
  8  4  1  0
  9  4  1  0
 10  6  1  0
 11  3  1  0
 11  7  1  0
 12  5  2  0
 12  6  1  0
 13  3  1  0
 14  3  1  0
 14  4  1  0
 15 14  1  0
 16  1  1  0
 16  2  2  0
M  END
>  <ID>  (1) 
conformer_0

$$$$
