
     RDKit          3D

 18 18  0  0  0  0  0  0  0  0999 V2000
    4.8272  107.0766   26.1539 C   0  0  0  0  0  0  0  0  0  0  0  0
    5.1982  109.2208   24.4694 C   0  0  0  0  0  0  0  0  0  0  0  0
   -0.8065  108.1420   20.6589 C   0  0  0  0  0  0  0  0  0  0  0  0
   -1.6321  108.6336   18.8670 C   0  0  0  0  0  0  0  0  0  0  0  0
    2.8963  106.7408   24.2047 C   0  0  0  0  0  0  0  0  0  0  0  0
    6.0562  109.1323   25.4462 C   0  0  0  0  0  0  0  0  0  0  0  0
    5.9269  108.0486   26.3123 C   0  0  0  0  0  0  0  0  0  0  0  0
    1.6057  107.0364   24.1076 N   0  0  0  0  0  0  0  0  0  0  0  0
    1.9799  105.1076   23.5711 O   0  0  0  0  0  0  0  0  0  0  0  0
    7.0274  110.1182   25.7650 N   0  0  0  0  0  0  0  0  0  0  0  0
   -0.9986  106.7850   21.0383 O   0  0  0  0  0  0  0  0  0  0  0  0
    4.2650  108.3269   24.1105 C   0  0  0  0  0  0  0  0  0  0  0  0
   -0.8279  109.1593   21.8086 O   0  0  0  0  0  0  0  0  0  0  0  0
   -0.7440  106.8387   22.1267 C   0  0  0  0  0  0  0  0  0  0  0  0
   -1.4980  108.4289   19.8298 O   0  0  0  0  0  0  0  0  0  0  0  0
    3.9706  107.2144   25.0718 C   0  0  0  0  0  0  0  0  0  0  0  0
   -0.0032  106.6412   23.0312 N   0  0  0  0  0  0  0  0  0  0  0  0
    0.9340  106.1424   23.3506 C   0  0  0  0  0  0  0  0  0  0  0  0
  6  2  2  0
  7  1  2  0
  7  6  1  0
  8  5  1  0
 10  6  1  0
 11  3  1  0
 12  2  1  0
 13  3  1  0
 14 11  1  0
 15  3  1  0
 15  4  1  0
 16  1  1  0
 16  5  1  0
 16 12  2  0
 17 14  1  0
 18  8  1  0
 18  9  2  0
 18 17  1  0
M  END
>  <ID>  (1) 
conformer_0

$$$$
