
     RDKit          3D

 18 19  0  0  0  0  0  0  0  0999 V2000
    5.2856  107.1170   26.2396 C   0  0  0  0  0  0  0  0  0  0  0  0
    4.1795  107.0435   25.3991 C   0  0  0  0  0  0  0  0  0  0  0  0
   -0.7027  107.5430   21.9994 C   0  0  0  0  0  0  0  0  0  0  0  0
    2.8016  106.6738   24.2217 C   0  0  0  0  0  0  0  0  0  0  0  0
   -2.5759  108.9203   18.5899 C   0  0  0  0  0  0  0  0  0  0  0  0
    1.9704  107.0850   24.1739 N   0  0  0  0  0  0  0  0  0  0  0  0
   -0.8873  109.5230   21.2008 O   0  0  0  0  0  0  0  0  0  0  0  0
    6.4391  107.9953   25.9433 C   0  0  0  0  0  0  0  0  0  0  0  0
    6.0255  109.0694   25.2786 C   0  0  0  0  0  0  0  0  0  0  0  0
   -1.4027  108.5114   19.5057 C   0  0  0  0  0  0  0  0  0  0  0  0
    0.3545  105.6217   22.2910 O   0  0  0  0  0  0  0  0  0  0  0  0
    6.7931  110.0053   25.4498 N   0  0  0  0  0  0  0  0  0  0  0  0
    4.9620  109.0953   24.3916 C   0  0  0  0  0  0  0  0  0  0  0  0
    0.4984  106.4790   23.2836 C   0  0  0  0  0  0  0  0  0  0  0  0
   -0.9985  107.9540   20.1938 O   0  0  0  0  0  0  0  0  0  0  0  0
    0.1421  107.2207   23.3757 N   0  0  0  0  0  0  0  0  0  0  0  0
    2.1104  105.3840   23.5552 O   0  0  0  0  0  0  0  0  0  0  0  0
    4.1258  108.0870   24.3687 C   0  0  0  0  0  0  0  0  0  0  0  0
  2  1  2  0
  4  2  1  0
  6  4  1  0
  8  1  1  0
  9  8  2  0
 10  5  1  0
 10  7  1  0
 12  9  1  0
 13  9  1  0
 14  6  1  0
 14 11  2  0
 15  3  1  0
 15 10  1  0
 16  3  1  0
 16 14  1  0
 17  4  1  0
 18  2  1  0
 18  4  1  0
 18 13  2  0
M  END
>  <ID>  (1) 
conformer_0

$$$$
