
     RDKit          3D

 13 12  0  0  0  0  0  0  0  0999 V2000
    5.0592  109.0744   24.3598 C   0  0  0  0  0  0  0  0  0  0  0  0
    4.1855  108.0732   24.2837 C   0  0  0  0  0  0  0  0  0  0  0  0
    4.3216  107.0804   25.4834 C   0  0  0  0  0  0  0  0  0  0  0  0
   -0.1830  107.0667   22.4873 C   0  0  0  0  0  0  0  0  0  0  0  0
    2.2434  106.4666   24.2262 C   0  0  0  0  0  0  0  0  0  0  0  0
   -2.4940  108.9678   18.6162 C   0  0  0  0  0  0  0  0  0  0  0  0
    5.9250  108.9846   25.5791 C   0  0  0  0  0  0  0  0  0  0  0  0
   -1.0739  108.3832   20.6908 O   0  0  0  0  0  0  0  0  0  0  0  0
    1.6335  106.6592   24.6137 N   0  0  0  0  0  0  0  0  0  0  0  0
    6.7422  109.8724   25.9647 N   0  0  0  0  0  0  0  0  0  0  0  0
   -1.2260  108.3240   19.9776 C   0  0  0  0  0  0  0  0  0  0  0  0
   -0.1686  106.9035   23.0743 N   0  0  0  0  0  0  0  0  0  0  0  0
    5.5579  107.5623   26.1026 C   0  0  0  0  0  0  0  0  0  0  0  0
  2  1  1  0
  3  2  1  0
  7  1  2  3
  8  4  1  0
  9  5  1  0
 10  7  1  0
 11  6  1  0
 11  8  1  0
 12  4  1  0
 12  9  1  0
 13  5  1  0
 13  7  1  0
M  END
>  <ID>  (1) 
conformer_0

$$$$
