
     RDKit          3D

 18 18  0  0  0  0  0  0  0  0999 V2000
    6.2695  108.2358   25.6423 C   0  0  0  0  0  0  0  0  0  0  0  0
    5.2164  107.4513   26.2303 C   0  0  0  0  0  0  0  0  0  0  0  0
   -0.7348  107.5508   21.7534 C   0  0  0  0  0  0  0  0  0  0  0  0
    2.7461  106.4877   24.1700 C   0  0  0  0  0  0  0  0  0  0  0  0
    5.7480  109.3740   25.0097 C   0  0  0  0  0  0  0  0  0  0  0  0
   -0.1490  107.2194   23.3325 N   0  0  0  0  0  0  0  0  0  0  0  0
    4.8947  108.9802   24.1191 C   0  0  0  0  0  0  0  0  0  0  0  0
   -1.2793  108.4658   19.4623 C   0  0  0  0  0  0  0  0  0  0  0  0
   -1.0550  107.9338   19.9219 O   0  0  0  0  0  0  0  0  0  0  0  0
    1.9816  105.1133   23.6468 O   0  0  0  0  0  0  0  0  0  0  0  0
    6.3894  110.4090   25.0657 N   0  0  0  0  0  0  0  0  0  0  0  0
   -2.7141  109.1103   18.7636 C   0  0  0  0  0  0  0  0  0  0  0  0
   -0.5518  108.7448   21.7954 O   0  0  0  0  0  0  0  0  0  0  0  0
    4.0182  108.0147   24.1297 C   0  0  0  0  0  0  0  0  0  0  0  0
    0.1705  105.7083   22.0296 O   0  0  0  0  0  0  0  0  0  0  0  0
    0.3755  106.5249   23.1361 C   0  0  0  0  0  0  0  0  0  0  0  0
    1.6705  106.8820   24.2186 N   0  0  0  0  0  0  0  0  0  0  0  0
    4.1267  107.1314   25.3871 C   0  0  0  0  0  0  0  0  0  0  0  0
  2  1  2  0
  5  1  1  0
  6  3  1  0
  7  5  2  0
  9  3  1  0
  9  8  1  0
 10  4  2  0
 11  5  1  0
 12  8  1  0
 13  3  2  0
 14  7  1  0
 16  6  1  0
 16 15  2  0
 17  4  1  0
 17 16  1  0
 18  2  1  0
 18  4  1  0
 18 14  2  0
M  END
>  <ID>  (1) 
conformer_0

$$$$
