
     RDKit          3D

 17 17  0  0  0  0  0  0  0  0999 V2000
    6.3208  107.8253   25.9982 C   0  0  0  0  0  0  0  0  0  0  0  0
    5.1057  106.9014   26.0438 C   0  0  0  0  0  0  0  0  0  0  0  0
    0.4803  106.6613   22.8290 C   0  0  0  0  0  0  0  0  0  0  0  0
    4.1208  107.1155   25.1980 C   0  0  0  0  0  0  0  0  0  0  0  0
    2.7003  106.7478   24.1017 C   0  0  0  0  0  0  0  0  0  0  0  0
    2.1882  105.7626   22.9560 O   0  0  0  0  0  0  0  0  0  0  0  0
    7.0059  110.0230   25.7043 N   0  0  0  0  0  0  0  0  0  0  0  0
    6.1383  109.0283   25.4377 C   0  0  0  0  0  0  0  0  0  0  0  0
   -1.1908  107.8213   19.7388 O   0  0  0  0  0  0  0  0  0  0  0  0
    0.0289  107.3011   22.9262 N   0  0  0  0  0  0  0  0  0  0  0  0
   -2.8555  108.9367   18.5746 C   0  0  0  0  0  0  0  0  0  0  0  0
   -0.7449  107.6143   21.5444 C   0  0  0  0  0  0  0  0  0  0  0  0
    5.1373  109.1421   24.5074 C   0  0  0  0  0  0  0  0  0  0  0  0
   -1.0259  109.0364   21.3657 O   0  0  0  0  0  0  0  0  0  0  0  0
    1.8211  107.0958   24.2828 N   0  0  0  0  0  0  0  0  0  0  0  0
   -1.6006  108.3755   19.6204 C   0  0  0  0  0  0  0  0  0  0  0  0
    4.2330  108.2443   24.2830 C   0  0  0  0  0  0  0  0  0  0  0  0
  2  1  2  0
  4  2  1  0
  5  4  1  0
  6  3  1  0
  6  5  1  0
  8  1  1  0
  8  7  1  0
 10  3  1  0
 12  9  1  0
 12 10  1  0
 13  8  2  0
 14 12  2  0
 15  5  1  0
 16  9  1  0
 16 11  1  0
 17  4  2  0
 17 13  1  0
M  END
>  <ID>  (1) 
conformer_0

$$$$
