
     RDKit          3D

 15 15  0  0  0  0  0  0  0  0999 V2000
    4.0583  107.8299   24.6132 C   0  0  0  0  0  0  0  0  0  0  0  0
    4.9038  108.8663   24.4370 C   0  0  0  0  0  0  0  0  0  0  0  0
   -0.8364  107.7518   21.8128 C   0  0  0  0  0  0  0  0  0  0  0  0
   -1.0770  108.3488   19.3209 C   0  0  0  0  0  0  0  0  0  0  0  0
    1.3687  107.0913   23.9922 N   0  0  0  0  0  0  0  0  0  0  0  0
    2.5562  106.7408   24.1038 C   0  0  0  0  0  0  0  0  0  0  0  0
    5.8769  107.3820   26.0261 C   0  0  0  0  0  0  0  0  0  0  0  0
    6.1726  108.8054   25.4078 C   0  0  0  0  0  0  0  0  0  0  0  0
   -1.2978  108.3479   19.8561 O   0  0  0  0  0  0  0  0  0  0  0  0
    0.6033  105.6678   22.6018 O   0  0  0  0  0  0  0  0  0  0  0  0
   -2.8773  108.6210   18.4475 C   0  0  0  0  0  0  0  0  0  0  0  0
    4.4944  106.8775   25.7387 C   0  0  0  0  0  0  0  0  0  0  0  0
    7.2136  109.8246   25.8406 O   0  0  0  0  0  0  0  0  0  0  0  0
    0.0446  106.7930   23.0571 C   0  0  0  0  0  0  0  0  0  0  0  0
   -0.9477  109.1023   21.5914 O   0  0  0  0  0  0  0  0  0  0  0  0
  2  1  2  0
  6  1  1  0
  6  5  1  0
  8  2  1  0
  8  7  2  0
  9  4  1  0
 11  4  1  0
 12  1  1  0
 12  7  1  0
 13  8  1  0
 14  3  1  0
 14  5  1  0
 14 10  1  0
 15  3  1  0
 15  9  1  0
M  END
>  <ID>  (1) 
conformer_0

$$$$
