
     RDKit          3D

 17 17  0  0  0  0  0  0  0  0999 V2000
    4.1097  108.1889   24.1252 C   0  0  0  0  0  0  0  0  0  0  0  0
    6.0259  107.6316   26.0854 C   0  0  0  0  0  0  0  0  0  0  0  0
   -0.9668  107.8532   21.5415 C   0  0  0  0  0  0  0  0  0  0  0  0
    2.5334  106.7507   24.1001 C   0  0  0  0  0  0  0  0  0  0  0  0
    5.0571  109.0269   24.5289 C   0  0  0  0  0  0  0  0  0  0  0  0
    0.6005  107.6352   23.0625 N   0  0  0  0  0  0  0  0  0  0  0  0
    5.9408  108.7962   25.4676 C   0  0  0  0  0  0  0  0  0  0  0  0
   -1.2570  108.4771   19.3536 C   0  0  0  0  0  0  0  0  0  0  0  0
    6.9549  109.7939   25.7518 N   0  0  0  0  0  0  0  0  0  0  0  0
    1.3734  105.6902   23.0582 O   0  0  0  0  0  0  0  0  0  0  0  0
   -1.2353  107.4245   20.2916 O   0  0  0  0  0  0  0  0  0  0  0  0
   -2.5385  108.9933   18.4788 C   0  0  0  0  0  0  0  0  0  0  0  0
   -0.8965  109.3779   21.0305 O   0  0  0  0  0  0  0  0  0  0  0  0
    3.9075  107.0366   25.1483 C   0  0  0  0  0  0  0  0  0  0  0  0
    4.9037  106.7410   26.1287 C   0  0  0  0  0  0  0  0  0  0  0  0
    2.0877  106.9845   24.3927 N   0  0  0  0  0  0  0  0  0  0  0  0
    0.0059  106.8607   22.5156 C   0  0  0  0  0  0  0  0  0  0  0  0
  5  1  2  0
  7  2  2  0
  7  5  1  0
  9  7  1  0
 10  4  1  0
 11  3  1  0
 11  8  1  0
 12  8  1  0
 13  3  1  0
 14  1  1  0
 14  4  1  0
 15  2  1  0
 15 14  2  0
 16  4  1  0
 17  3  1  0
 17  6  1  0
 17 10  1  0
M  END
>  <ID>  (1) 
conformer_0

$$$$
