
     RDKit          3D

 18 18  0  0  0  0  0  0  0  0999 V2000
    5.0542  106.9657   26.1098 C   0  0  0  0  0  0  0  0  0  0  0  0
   -0.7237  106.8221   22.1372 C   0  0  0  0  0  0  0  0  0  0  0  0
    6.2319  107.8945   26.1550 C   0  0  0  0  0  0  0  0  0  0  0  0
    2.9875  106.7439   24.3638 C   0  0  0  0  0  0  0  0  0  0  0  0
    2.0332  107.1092   24.2504 N   0  0  0  0  0  0  0  0  0  0  0  0
    4.1464  107.2652   25.1241 C   0  0  0  0  0  0  0  0  0  0  0  0
   -2.2034  108.6063   18.5344 C   0  0  0  0  0  0  0  0  0  0  0  0
    6.2072  108.9841   25.4294 C   0  0  0  0  0  0  0  0  0  0  0  0
    1.2904  105.5229   22.8227 O   0  0  0  0  0  0  0  0  0  0  0  0
   -1.4683  107.4216   20.2780 O   0  0  0  0  0  0  0  0  0  0  0  0
   -0.6452  108.2047   21.7826 C   0  0  0  0  0  0  0  0  0  0  0  0
    7.1402  109.8795   25.6362 N   0  0  0  0  0  0  0  0  0  0  0  0
    4.3575  108.3603   24.2071 C   0  0  0  0  0  0  0  0  0  0  0  0
   -1.4524  108.2938   19.6139 C   0  0  0  0  0  0  0  0  0  0  0  0
   -1.0573  109.1995   20.9970 O   0  0  0  0  0  0  0  0  0  0  0  0
    0.2279  107.0644   23.4064 N   0  0  0  0  0  0  0  0  0  0  0  0
    5.2585  109.2430   24.5382 C   0  0  0  0  0  0  0  0  0  0  0  0
    1.0891  106.3904   23.4258 C   0  0  0  0  0  0  0  0  0  0  0  0
  3  1  2  0
  5  4  1  0
  6  1  1  0
  6  4  1  0
  8  3  1  0
 11  2  1  0
 12  8  1  0
 13  6  2  0
 14  7  1  0
 14 10  2  0
 15 11  1  0
 15 14  1  0
 16  2  1  0
 17  8  2  0
 17 13  1  0
 18  5  1  0
 18  9  2  0
 18 16  1  0
M  END
>  <ID>  (1) 
conformer_0

$$$$
