
     RDKit          3D

 17 17  0  0  0  0  0  0  0  0999 V2000
    5.3533  109.2871   24.7675 C   0  0  0  0  0  0  0  0  0  0  0  0
    4.3322  108.4956   24.3563 C   0  0  0  0  0  0  0  0  0  0  0  0
   -0.8200  107.6858   21.8047 C   0  0  0  0  0  0  0  0  0  0  0  0
    2.6770  106.4811   24.4909 C   0  0  0  0  0  0  0  0  0  0  0  0
   -2.5857  109.1160   18.5100 C   0  0  0  0  0  0  0  0  0  0  0  0
    5.3441  106.8283   25.8225 C   0  0  0  0  0  0  0  0  0  0  0  0
    1.9006  105.3968   23.4482 O   0  0  0  0  0  0  0  0  0  0  0  0
   -1.3914  108.4152   19.5059 C   0  0  0  0  0  0  0  0  0  0  0  0
    1.8484  106.9984   24.6816 N   0  0  0  0  0  0  0  0  0  0  0  0
   -1.4125  107.8943   20.1451 O   0  0  0  0  0  0  0  0  0  0  0  0
    6.3156  108.8281   25.4050 C   0  0  0  0  0  0  0  0  0  0  0  0
    7.2377  109.6646   25.6558 N   0  0  0  0  0  0  0  0  0  0  0  0
   -0.5312  109.0990   21.8814 O   0  0  0  0  0  0  0  0  0  0  0  0
    6.6137  107.5101   25.7990 C   0  0  0  0  0  0  0  0  0  0  0  0
    0.5341  106.7105   23.1175 C   0  0  0  0  0  0  0  0  0  0  0  0
    0.1731  107.0762   23.2769 N   0  0  0  0  0  0  0  0  0  0  0  0
    4.1745  107.2024   25.1784 C   0  0  0  0  0  0  0  0  0  0  0  0
  2  1  2  0
  7  4  1  0
  8  5  1  0
  9  4  1  0
 10  3  1  0
 10  8  1  0
 11  1  1  0
 12 11  1  0
 13  3  2  0
 14  6  1  0
 14 11  2  0
 15  7  1  0
 16  3  1  0
 16 15  1  0
 17  2  1  0
 17  4  1  0
 17  6  2  0
M  END
>  <ID>  (1) 
conformer_0

$$$$
