
     RDKit          3D

 17 17  0  0  0  0  0  0  0  0999 V2000
    6.1310  108.0556   26.2265 C   0  0  0  0  0  0  0  0  0  0  0  0
    5.1746  107.0151   26.2662 C   0  0  0  0  0  0  0  0  0  0  0  0
   -0.9971  107.6446   21.8892 C   0  0  0  0  0  0  0  0  0  0  0  0
    2.6918  106.5063   24.1988 C   0  0  0  0  0  0  0  0  0  0  0  0
   -2.5855  108.9846   18.6094 C   0  0  0  0  0  0  0  0  0  0  0  0
    4.1797  106.9214   25.2673 C   0  0  0  0  0  0  0  0  0  0  0  0
    6.0171  109.0424   25.4267 C   0  0  0  0  0  0  0  0  0  0  0  0
   -1.3745  108.4041   19.5646 C   0  0  0  0  0  0  0  0  0  0  0  0
   -1.4463  107.6578   20.1182 O   0  0  0  0  0  0  0  0  0  0  0  0
    1.6837  105.5686   23.0675 O   0  0  0  0  0  0  0  0  0  0  0  0
    1.7105  106.9450   24.4912 N   0  0  0  0  0  0  0  0  0  0  0  0
    6.8316  110.0832   25.6744 N   0  0  0  0  0  0  0  0  0  0  0  0
   -0.4398  108.8273   21.9883 O   0  0  0  0  0  0  0  0  0  0  0  0
    5.1139  108.9174   24.3517 C   0  0  0  0  0  0  0  0  0  0  0  0
    4.2008  108.0205   24.3012 C   0  0  0  0  0  0  0  0  0  0  0  0
    0.3977  106.5260   23.0841 C   0  0  0  0  0  0  0  0  0  0  0  0
   -0.0957  107.0090   23.1794 N   0  0  0  0  0  0  0  0  0  0  0  0
  2  1  2  0
  6  2  1  0
  6  4  1  0
  7  1  1  0
  8  5  1  0
  9  3  1  0
  9  8  1  0
 10  4  1  0
 11  4  1  0
 12  7  1  0
 13  3  1  0
 14  7  2  0
 15  6  2  0
 15 14  1  0
 16 10  1  0
 17  3  1  0
 17 16  1  0
M  END
>  <ID>  (1) 
conformer_0

$$$$
