
     RDKit          3D

 16 16  0  0  0  0  0  0  0  0999 V2000
    5.5350  109.2876   24.6967 C   0  0  0  0  0  0  0  0  0  0  0  0
    4.5008  108.6982   24.0167 C   0  0  0  0  0  0  0  0  0  0  0  0
   -0.9843  107.7345   21.5571 C   0  0  0  0  0  0  0  0  0  0  0  0
   -1.1447  108.5239   19.4222 C   0  0  0  0  0  0  0  0  0  0  0  0
    2.5884  106.6998   23.9587 C   0  0  0  0  0  0  0  0  0  0  0  0
    5.6852  107.7724   26.2742 C   0  0  0  0  0  0  0  0  0  0  0  0
    1.3399  105.4379   23.1732 O   0  0  0  0  0  0  0  0  0  0  0  0
    1.5496  107.2363   23.9623 N   0  0  0  0  0  0  0  0  0  0  0  0
    6.1068  108.9383   25.7190 C   0  0  0  0  0  0  0  0  0  0  0  0
    7.1751  109.6755   26.2849 N   0  0  0  0  0  0  0  0  0  0  0  0
   -0.7634  109.2914   21.7941 O   0  0  0  0  0  0  0  0  0  0  0  0
   -1.1543  107.7834   19.8737 O   0  0  0  0  0  0  0  0  0  0  0  0
   -0.4069  107.0979   22.3841 N   0  0  0  0  0  0  0  0  0  0  0  0
    4.4489  107.0312   25.8484 C   0  0  0  0  0  0  0  0  0  0  0  0
    0.0972  106.5479   22.9361 C   0  0  0  0  0  0  0  0  0  0  0  0
    3.9193  107.5741   24.6454 C   0  0  0  0  0  0  0  0  0  0  0  0
  2  1  2  0
  8  5  1  0
  9  1  1  0
  9  6  2  0
 10  9  1  0
 11  3  2  0
 12  3  1  0
 12  4  1  0
 13  3  1  0
 14  6  1  0
 15  7  1  0
 15  8  1  0
 15 13  1  0
 16  2  1  0
 16  5  1  0
 16 14  2  0
M  END
>  <ID>  (1) 
conformer_0

$$$$
