
     RDKit          3D

 16 17  0  0  0  0  0  0  0  0999 V2000
    5.2889  107.1287   25.9698 C   0  0  0  0  0  0  0  0  0  0  0  0
    4.1030  107.1804   25.1311 C   0  0  0  0  0  0  0  0  0  0  0  0
   -0.9797  107.5779   21.6768 C   0  0  0  0  0  0  0  0  0  0  0  0
    4.2208  108.2753   24.2074 C   0  0  0  0  0  0  0  0  0  0  0  0
    2.4368  106.6429   24.0207 C   0  0  0  0  0  0  0  0  0  0  0  0
   -1.4093  108.4772   19.5450 C   0  0  0  0  0  0  0  0  0  0  0  0
    1.8589  105.4691   23.2924 O   0  0  0  0  0  0  0  0  0  0  0  0
    0.8812  107.0763   23.7275 N   0  0  0  0  0  0  0  0  0  0  0  0
    6.2473  109.3070   25.2517 C   0  0  0  0  0  0  0  0  0  0  0  0
   -1.6838  107.3054   20.2768 O   0  0  0  0  0  0  0  0  0  0  0  0
   -2.4048  109.0323   18.4671 C   0  0  0  0  0  0  0  0  0  0  0  0
    7.0018  110.2056   25.4776 N   0  0  0  0  0  0  0  0  0  0  0  0
    6.3561  107.9505   25.8530 C   0  0  0  0  0  0  0  0  0  0  0  0
   -0.9582  108.9956   20.8615 O   0  0  0  0  0  0  0  0  0  0  0  0
   -0.0762  106.4800   22.8608 C   0  0  0  0  0  0  0  0  0  0  0  0
    5.1292  109.1489   24.3547 C   0  0  0  0  0  0  0  0  0  0  0  0
  2  1  2  0
  4  2  1  0
  5  2  1  0
  7  5  2  0
  8  5  1  0
 10  3  1  0
 10  6  1  0
 11  6  1  0
 12  9  1  0
 13  1  1  0
 13  9  2  0
 14  3  1  0
 14  6  1  0
 15  3  1  0
 15  8  1  0
 16  4  2  0
 16  9  1  0
M  END
>  <ID>  (1) 
conformer_0

$$$$
