
     RDKit          3D

 16 16  0  0  0  0  0  0  0  0999 V2000
    4.0828  107.8538   24.5532 C   0  0  0  0  0  0  0  0  0  0  0  0
    5.7284  107.6628   26.2119 C   0  0  0  0  0  0  0  0  0  0  0  0
   -0.9852  108.0552   21.1634 C   0  0  0  0  0  0  0  0  0  0  0  0
    2.9110  106.6307   24.4574 C   0  0  0  0  0  0  0  0  0  0  0  0
   -2.7798  109.0445   18.3503 C   0  0  0  0  0  0  0  0  0  0  0  0
    0.9568  107.1546   23.6582 N   0  0  0  0  0  0  0  0  0  0  0  0
    1.9417  105.3694   23.3684 O   0  0  0  0  0  0  0  0  0  0  0  0
    5.9821  108.9267   25.5131 C   0  0  0  0  0  0  0  0  0  0  0  0
    4.9446  108.9744   24.3981 C   0  0  0  0  0  0  0  0  0  0  0  0
   -1.8804  108.5102   19.1491 C   0  0  0  0  0  0  0  0  0  0  0  0
   -1.4678  107.4677   19.9266 O   0  0  0  0  0  0  0  0  0  0  0  0
    6.9836  109.7733   25.7547 N   0  0  0  0  0  0  0  0  0  0  0  0
    4.4380  107.0046   25.7690 C   0  0  0  0  0  0  0  0  0  0  0  0
   -0.9492  109.0524   21.0197 O   0  0  0  0  0  0  0  0  0  0  0  0
   -0.6182  107.3364   22.3468 C   0  0  0  0  0  0  0  0  0  0  0  0
    1.1162  106.4061   23.3423 C   0  0  0  0  0  0  0  0  0  0  0  0
  4  1  1  0
  7  4  1  0
  8  2  2  0
  9  1  2  0
  9  8  1  0
 10  5  2  3
 11  3  1  0
 11 10  1  0
 12  8  1  0
 13  1  1  0
 13  2  1  0
 14  3  2  0
 15  3  1  0
 15  6  1  0
 16  6  1  0
 16  7  1  0
M  END
>  <ID>  (1) 
conformer_0

$$$$
