
     RDKit          3D

 18 18  0  0  0  0  0  0  0  0999 V2000
    6.3940  108.0005   26.0073 C   0  0  0  0  0  0  0  0  0  0  0  0
    5.2679  107.1894   26.2876 C   0  0  0  0  0  0  0  0  0  0  0  0
   -0.9009  107.5633   21.5211 C   0  0  0  0  0  0  0  0  0  0  0  0
    2.5801  106.5590   24.2855 C   0  0  0  0  0  0  0  0  0  0  0  0
    4.1783  107.1452   25.4863 C   0  0  0  0  0  0  0  0  0  0  0  0
   -1.4252  108.5369   19.3323 C   0  0  0  0  0  0  0  0  0  0  0  0
    6.2864  109.0201   25.0358 C   0  0  0  0  0  0  0  0  0  0  0  0
    1.9415  106.7836   24.7796 N   0  0  0  0  0  0  0  0  0  0  0  0
    1.2295  105.3226   23.3197 O   0  0  0  0  0  0  0  0  0  0  0  0
   -1.0250  108.6408   21.3286 O   0  0  0  0  0  0  0  0  0  0  0  0
   -2.8298  109.2383   18.3975 C   0  0  0  0  0  0  0  0  0  0  0  0
    4.1413  108.1515   24.3768 C   0  0  0  0  0  0  0  0  0  0  0  0
    0.2626  107.3012   23.3352 N   0  0  0  0  0  0  0  0  0  0  0  0
    7.2081  109.8941   25.4334 N   0  0  0  0  0  0  0  0  0  0  0  0
    7.2562  109.8326   24.2347 F   0  0  0  0  0  0  0  0  0  0  0  0
    0.3285  106.5404   23.1190 C   0  0  0  0  0  0  0  0  0  0  0  0
   -1.5896  107.6700   19.7657 O   0  0  0  0  0  0  0  0  0  0  0  0
    5.0469  109.0713   24.4415 C   0  0  0  0  0  0  0  0  0  0  0  0
  2  1  2  0
  5  2  1  0
  5  4  1  0
  7  1  1  0
  8  4  1  0
  9  4  1  0
 10  3  2  0
 11  6  1  0
 12  5  2  0
 13  3  1  0
 14  7  1  0
 15 14  1  0
 16  9  1  0
 16 13  1  0
 17  3  1  0
 17  6  1  0
 18  7  2  0
 18 12  1  0
M  END
>  <ID>  (1) 
conformer_0

$$$$
