
     RDKit          3D

 17 17  0  0  0  0  0  0  0  0999 V2000
    4.2646  108.4052   24.1393 C   0  0  0  0  0  0  0  0  0  0  0  0
    6.0585  107.8189   26.1489 C   0  0  0  0  0  0  0  0  0  0  0  0
   -0.9542  107.4547   21.7576 C   0  0  0  0  0  0  0  0  0  0  0  0
   -2.3588  108.6775   18.5528 C   0  0  0  0  0  0  0  0  0  0  0  0
    6.2581  109.0096   25.4954 C   0  0  0  0  0  0  0  0  0  0  0  0
    1.1572  105.6034   22.6370 O   0  0  0  0  0  0  0  0  0  0  0  0
    0.2934  106.5795   22.8924 C   0  0  0  0  0  0  0  0  0  0  0  0
    1.8600  106.7573   24.5855 N   0  0  0  0  0  0  0  0  0  0  0  0
    7.3505  109.8001   25.8480 N   0  0  0  0  0  0  0  0  0  0  0  0
    5.3007  109.1955   24.6109 C   0  0  0  0  0  0  0  0  0  0  0  0
   -1.3039  109.1693   21.6151 O   0  0  0  0  0  0  0  0  0  0  0  0
    2.6015  106.6739   24.2203 C   0  0  0  0  0  0  0  0  0  0  0  0
    4.8780  106.9557   26.0268 C   0  0  0  0  0  0  0  0  0  0  0  0
    0.0091  107.1555   23.2773 N   0  0  0  0  0  0  0  0  0  0  0  0
   -1.4723  108.2266   19.8634 C   0  0  0  0  0  0  0  0  0  0  0  0
   -1.4212  108.0077   20.1138 O   0  0  0  0  0  0  0  0  0  0  0  0
    4.0088  107.2705   24.9327 C   0  0  0  0  0  0  0  0  0  0  0  0
  5  2  2  0
  7  6  1  0
  9  5  1  0
 10  1  2  0
 10  5  1  0
 11  3  1  0
 12  6  1  0
 12  8  1  0
 13  2  1  0
 14  3  1  0
 14  7  1  0
 15  4  1  0
 16  3  1  0
 16 15  1  0
 17  1  1  0
 17 12  1  0
 17 13  2  0
M  END
>  <ID>  (1) 
conformer_0

$$$$
