
     RDKit          3D

 18 18  0  0  0  0  0  0  0  0999 V2000
    5.6404  107.7517   26.4329 C   0  0  0  0  0  0  0  0  0  0  0  0
    3.8809  107.2293   25.0261 C   0  0  0  0  0  0  0  0  0  0  0  0
   -0.7268  107.6341   21.6240 C   0  0  0  0  0  0  0  0  0  0  0  0
    2.5874  106.6363   24.2008 C   0  0  0  0  0  0  0  0  0  0  0  0
    4.2932  108.3002   24.1568 C   0  0  0  0  0  0  0  0  0  0  0  0
    1.8208  106.9561   24.3963 N   0  0  0  0  0  0  0  0  0  0  0  0
   -1.4312  108.0508   20.1448 O   0  0  0  0  0  0  0  0  0  0  0  0
    7.0153  109.7107   26.0554 N   0  0  0  0  0  0  0  0  0  0  0  0
    5.9610  108.8603   25.7526 C   0  0  0  0  0  0  0  0  0  0  0  0
   -1.4886  108.4267   19.4755 C   0  0  0  0  0  0  0  0  0  0  0  0
   -2.5075  108.8351   18.4919 C   0  0  0  0  0  0  0  0  0  0  0  0
    2.1682  105.5862   23.0952 O   0  0  0  0  0  0  0  0  0  0  0  0
    5.1797  109.0691   24.6655 C   0  0  0  0  0  0  0  0  0  0  0  0
   -0.5227  109.1980   21.6164 O   0  0  0  0  0  0  0  0  0  0  0  0
    0.3911  106.6616   22.8482 C   0  0  0  0  0  0  0  0  0  0  0  0
    0.1682  105.7961   21.9475 O   0  0  0  0  0  0  0  0  0  0  0  0
    0.3236  107.3504   23.0658 N   0  0  0  0  0  0  0  0  0  0  0  0
    4.5470  106.8259   26.1364 C   0  0  0  0  0  0  0  0  0  0  0  0
  4  2  1  0
  5  2  1  0
  6  4  1  0
  7  3  1  0
  9  1  2  0
  9  8  1  0
 10  7  1  0
 11 10  1  0
 12  4  1  0
 13  5  2  0
 13  9  1  0
 14  3  1  0
 15  4  1  0
 16 15  2  0
 17  3  1  0
 17 15  1  0
 18  1  1  0
 18  2  2  0
M  END
>  <ID>  (1) 
conformer_0

$$$$
