
     RDKit          3D

 17 17  0  0  0  0  0  0  0  0999 V2000
    6.3835  108.1542   25.8984 C   0  0  0  0  0  0  0  0  0  0  0  0
    5.4620  107.1574   26.3072 C   0  0  0  0  0  0  0  0  0  0  0  0
   -0.7439  107.5793   21.5105 C   0  0  0  0  0  0  0  0  0  0  0  0
    2.7799  106.5182   24.5888 C   0  0  0  0  0  0  0  0  0  0  0  0
   -2.8226  108.9673   18.4167 C   0  0  0  0  0  0  0  0  0  0  0  0
    4.9755  108.9353   24.3244 C   0  0  0  0  0  0  0  0  0  0  0  0
    5.9710  109.2488   25.1191 C   0  0  0  0  0  0  0  0  0  0  0  0
    2.0612  106.3907   24.9449 N   0  0  0  0  0  0  0  0  0  0  0  0
   -1.6509  108.5550   19.8767 O   0  0  0  0  0  0  0  0  0  0  0  0
   -1.6674  108.4082   19.3359 C   0  0  0  0  0  0  0  0  0  0  0  0
    0.4062  105.4276   22.9382 O   0  0  0  0  0  0  0  0  0  0  0  0
    6.6217  110.3389   25.1361 N   0  0  0  0  0  0  0  0  0  0  0  0
    4.1330  108.0359   24.3181 C   0  0  0  0  0  0  0  0  0  0  0  0
    0.5693  107.2299   23.2778 N   0  0  0  0  0  0  0  0  0  0  0  0
    0.5233  106.4409   23.2533 C   0  0  0  0  0  0  0  0  0  0  0  0
   -0.9521  107.1197   20.8448 O   0  0  0  0  0  0  0  0  0  0  0  0
    4.2586  107.0793   25.5137 C   0  0  0  0  0  0  0  0  0  0  0  0
  2  1  2  0
  7  1  1  0
  7  6  2  0
  8  4  1  0
 10  3  1  0
 10  5  1  0
 10  9  1  0
 12  7  1  0
 13  6  1  0
 15  3  1  0
 15  8  1  0
 15 11  1  0
 15 14  1  0
 16  3  1  0
 17  2  1  0
 17  4  1  0
 17 13  2  0
M  END
>  <ID>  (1) 
conformer_0

$$$$
