
     RDKit          3D

 15 15  0  0  0  0  0  0  0  0999 V2000
    6.0150  107.9405   26.0968 C   0  0  0  0  0  0  0  0  0  0  0  0
    4.5916  107.3140   25.7541 C   0  0  0  0  0  0  0  0  0  0  0  0
   -0.7656  107.4191   21.9727 C   0  0  0  0  0  0  0  0  0  0  0  0
   -2.5465  108.8685   18.6368 C   0  0  0  0  0  0  0  0  0  0  0  0
    2.9289  106.7631   24.3313 C   0  0  0  0  0  0  0  0  0  0  0  0
    2.1217  106.8970   24.7430 N   0  0  0  0  0  0  0  0  0  0  0  0
   -1.3751  108.3654   19.7096 C   0  0  0  0  0  0  0  0  0  0  0  0
    6.6109  109.0682   25.5877 C   0  0  0  0  0  0  0  0  0  0  0  0
   -1.2087  108.0680   20.6322 O   0  0  0  0  0  0  0  0  0  0  0  0
    1.5313  105.6887   22.8628 O   0  0  0  0  0  0  0  0  0  0  0  0
    5.4080  109.1470   24.4986 C   0  0  0  0  0  0  0  0  0  0  0  0
    4.3964  108.1616   24.4779 C   0  0  0  0  0  0  0  0  0  0  0  0
    0.4523  106.5586   23.2504 C   0  0  0  0  0  0  0  0  0  0  0  0
    0.0603  107.0255   23.7264 N   0  0  0  0  0  0  0  0  0  0  0  0
    7.4812  109.7771   25.8440 N   0  0  0  0  0  0  0  0  0  0  0  0
  2  1  2  0
  6  5  1  0
  7  4  1  0
  8  1  1  0
  9  3  1  0
  9  7  1  0
 11  8  1  0
 12  2  1  0
 12  5  1  0
 12 11  2  0
 13  3  1  0
 13  6  1  0
 13 10  1  0
 14 13  1  0
 15  8  1  0
M  END
>  <ID>  (1) 
conformer_0

$$$$
