
     RDKit          3D

 16 16  0  0  0  0  0  0  0  0999 V2000
    4.1818  108.2541   24.1482 C   0  0  0  0  0  0  0  0  0  0  0  0
    5.8025  107.8127   26.2676 C   0  0  0  0  0  0  0  0  0  0  0  0
   -0.7133  107.5376   21.7293 C   0  0  0  0  0  0  0  0  0  0  0  0
    6.0078  109.0459   25.5984 C   0  0  0  0  0  0  0  0  0  0  0  0
   -1.2930  108.2567   19.5382 C   0  0  0  0  0  0  0  0  0  0  0  0
    2.5331  106.4384   24.3751 C   0  0  0  0  0  0  0  0  0  0  0  0
    5.1463  109.0773   24.5652 C   0  0  0  0  0  0  0  0  0  0  0  0
   -2.3995  108.8835   18.4368 C   0  0  0  0  0  0  0  0  0  0  0  0
    7.0482  109.9442   25.8458 N   0  0  0  0  0  0  0  0  0  0  0  0
    1.3156  106.7566   24.2536 N   0  0  0  0  0  0  0  0  0  0  0  0
   -1.3859  107.7221   20.1963 O   0  0  0  0  0  0  0  0  0  0  0  0
    1.3930  105.4899   22.7932 O   0  0  0  0  0  0  0  0  0  0  0  0
   -0.5854  108.8046   22.0336 O   0  0  0  0  0  0  0  0  0  0  0  0
    3.8741  107.2069   25.0732 C   0  0  0  0  0  0  0  0  0  0  0  0
    4.5794  106.8973   26.1597 C   0  0  0  0  0  0  0  0  0  0  0  0
    0.3560  106.6575   23.0278 C   0  0  0  0  0  0  0  0  0  0  0  0
  4  2  2  0
  7  1  2  0
  7  4  1  0
  8  5  1  0
  9  4  1  0
 10  6  1  0
 11  3  1  0
 11  5  1  0
 13  3  2  0
 14  1  1  0
 14  6  1  0
 15  2  1  0
 15 14  2  0
 16  3  1  0
 16 10  1  0
 16 12  2  0
M  END
>  <ID>  (1) 
conformer_0

$$$$
