
     RDKit          3D

 17 17  0  0  0  0  0  0  0  0999 V2000
    6.0383  107.6805   26.4044 C   0  0  0  0  0  0  0  0  0  0  0  0
    4.3845  108.4337   24.3283 C   0  0  0  0  0  0  0  0  0  0  0  0
   -0.8404  107.5230   21.7131 C   0  0  0  0  0  0  0  0  0  0  0  0
    2.6274  106.7096   24.1781 C   0  0  0  0  0  0  0  0  0  0  0  0
   -1.2115  108.3863   19.5502 C   0  0  0  0  0  0  0  0  0  0  0  0
    5.3437  109.2172   24.8921 C   0  0  0  0  0  0  0  0  0  0  0  0
   -1.1685  107.6969   20.1996 O   0  0  0  0  0  0  0  0  0  0  0  0
    1.9006  105.7347   23.1119 O   0  0  0  0  0  0  0  0  0  0  0  0
    6.3029  108.8852   25.8796 C   0  0  0  0  0  0  0  0  0  0  0  0
    7.2772  109.7300   26.1996 N   0  0  0  0  0  0  0  0  0  0  0  0
   -2.5863  108.7430   18.6063 C   0  0  0  0  0  0  0  0  0  0  0  0
    1.8494  107.1355   24.4720 N   0  0  0  0  0  0  0  0  0  0  0  0
   -0.6562  108.8269   22.0494 O   0  0  0  0  0  0  0  0  0  0  0  0
    4.0527  107.2490   25.0527 C   0  0  0  0  0  0  0  0  0  0  0  0
    4.8017  106.8397   26.0972 C   0  0  0  0  0  0  0  0  0  0  0  0
    0.2215  106.8143   23.0276 C   0  0  0  0  0  0  0  0  0  0  0  0
   -0.0231  107.0375   23.3980 N   0  0  0  0  0  0  0  0  0  0  0  0
  6  2  2  0
  7  3  1  0
  7  5  1  0
  8  4  1  0
  9  1  2  0
  9  6  1  0
 10  9  1  0
 11  5  1  0
 12  4  1  0
 13  3  2  0
 14  2  1  0
 14  4  1  0
 15  1  1  0
 15 14  2  0
 16  3  1  0
 16  8  1  0
 17 16  1  0
M  END
>  <ID>  (1) 
conformer_0

$$$$
