
     RDKit          3D

 17 17  0  0  0  0  0  0  0  0999 V2000
    4.7636  106.8410   26.0539 C   0  0  0  0  0  0  0  0  0  0  0  0
    5.2210  109.1183   24.6212 C   0  0  0  0  0  0  0  0  0  0  0  0
    0.2862  106.6867   22.9125 C   0  0  0  0  0  0  0  0  0  0  0  0
    2.5080  106.8306   24.0814 C   0  0  0  0  0  0  0  0  0  0  0  0
   -2.6160  108.7456   18.5699 C   0  0  0  0  0  0  0  0  0  0  0  0
    6.1534  108.9323   25.5822 C   0  0  0  0  0  0  0  0  0  0  0  0
    5.8375  107.7938   26.2980 C   0  0  0  0  0  0  0  0  0  0  0  0
    1.6669  107.2903   24.1174 N   0  0  0  0  0  0  0  0  0  0  0  0
   -1.4022  108.4271   19.5463 C   0  0  0  0  0  0  0  0  0  0  0  0
   -0.9891  107.5450   20.2687 O   0  0  0  0  0  0  0  0  0  0  0  0
    1.7572  105.8267   22.8563 O   0  0  0  0  0  0  0  0  0  0  0  0
    7.0888  109.8844   26.0361 N   0  0  0  0  0  0  0  0  0  0  0  0
    4.2829  108.3740   24.1446 C   0  0  0  0  0  0  0  0  0  0  0  0
   -1.1083  109.3902   20.9258 O   0  0  0  0  0  0  0  0  0  0  0  0
   -0.8452  107.5683   21.6980 C   0  0  0  0  0  0  0  0  0  0  0  0
    3.9461  107.2222   24.9989 C   0  0  0  0  0  0  0  0  0  0  0  0
   -0.1765  106.9884   23.4616 N   0  0  0  0  0  0  0  0  0  0  0  0
  6  2  2  0
  7  1  2  0
  7  6  1  0
  8  4  1  0
  9  5  1  0
 10  9  1  0
 11  3  1  0
 11  4  1  0
 12  6  1  0
 13  2  1  0
 14  9  1  0
 15  3  1  0
 15 10  1  0
 16  1  1  0
 16  4  1  0
 16 13  2  0
 17  3  1  0
M  END
>  <ID>  (1) 
conformer_0

$$$$
