
     RDKit          3D

  8  8  0  0  0  0  0  0  0  0999 V2000
  130.7908   51.7408   32.9890 N   0  0  0  0  0  0  0  0  0  0  0  0
  131.4639   52.6425   32.6560 C   0  0  0  0  0  0  0  0  0  0  0  0
  132.8373   52.9146   33.2298 C   0  0  0  0  0  0  0  0  0  0  0  0
  131.1821   53.5464   31.5890 C   0  0  0  0  0  0  0  0  0  0  0  0
  129.6135   51.7350   32.1523 C   0  0  0  0  0  0  0  0  0  0  0  0
  129.8165   52.9054   31.2884 C   0  0  0  0  0  0  0  0  0  0  0  0
  128.6181   51.0467   32.2622 O   0  0  0  0  0  0  0  0  0  0  0  0
  131.7758   54.3817   31.1277 O   0  0  0  0  0  0  0  0  0  0  0  0
  1  2  2  0
  2  3  1  0
  2  4  1  0
  1  5  1  0
  4  6  1  0
  5  6  1  0
  5  7  2  0
  4  8  2  0
M  END
>  <ID>  (1) 
conformer_0

$$$$
