
     RDKit          3D

  8  9  0  0  0  0  0  0  0  0999 V2000
  129.0309   51.3573   32.7978 C   0  0  0  0  0  0  0  0  0  0  0  0
  130.3956   51.5909   32.8564 C   0  0  0  0  0  0  0  0  0  0  0  0
  129.1663   52.0993   31.8269 C   0  0  0  0  0  0  0  0  0  0  0  0
  131.3213   52.6628   33.0840 N   0  0  0  0  0  0  0  0  0  0  0  0
  131.3185   53.7100   32.4277 C   0  0  0  0  0  0  0  0  0  0  0  0
  130.5013   53.9745   31.4364 N   0  0  0  0  0  0  0  0  0  0  0  0
  132.4010   54.6865   32.6867 C   0  0  0  0  0  0  0  0  0  0  0  0
  129.5436   52.9532   31.0667 C   0  0  0  0  0  0  0  0  0  0  0  0
  1  2  1  0
  1  3  1  0
  2  3  1  0
  2  4  1  0
  4  5  1  0
  5  6  2  0
  5  7  1  0
  3  8  1  0
  6  8  1  0
M  END
>  <ID>  (1) 
conformer_0

$$$$
