
     RDKit          3D

  6  6  0  0  0  0  0  0  0  0999 V2000
  129.6916   51.7935   32.7673 N   0  0  0  0  0  0  0  0  0  0  0  0
  130.8770   51.7767   32.8945 C   0  0  0  0  0  0  0  0  0  0  0  0
  129.0280   52.5437   31.9281 C   0  0  0  0  0  0  0  0  0  0  0  0
  130.0817   53.3786   31.4163 C   0  0  0  0  0  0  0  0  0  0  0  0
  130.1434   54.4825   30.7138 N   0  0  0  0  0  0  0  0  0  0  0  0
  131.3621   53.0175   32.0946 N   0  0  0  0  0  0  0  0  0  0  0  0
  1  2  1  0
  1  3  2  0
  3  4  1  0
  4  5  1  0
  2  6  1  0
  4  6  2  0
M  END
>  <ID>  (1) 
conformer_0

$$$$
