
     RDKit          3D

  9  9  0  0  0  0  0  0  0  0999 V2000
  129.0115   51.2781   32.1799 C   0  0  0  0  0  0  0  0  0  0  0  0
  130.0527   52.2273   32.3281 C   0  0  0  0  0  0  0  0  0  0  0  0
  129.9552   53.3393   31.4544 C   0  0  0  0  0  0  0  0  0  0  0  0
  130.9793   54.3073   31.4444 C   0  0  0  0  0  0  0  0  0  0  0  0
  132.0895   54.2185   32.1652 C   0  0  0  0  0  0  0  0  0  0  0  0
  132.1996   52.8854   32.9261 C   0  0  0  0  0  0  0  0  0  0  0  0
  131.2385   51.9465   33.0459 C   0  0  0  0  0  0  0  0  0  0  0  0
  133.1531   54.8579   32.1398 O   0  0  0  0  0  0  0  0  0  0  0  0
  133.3513   52.7296   33.7527 O   0  0  0  0  0  0  0  0  0  0  0  0
  1  2  1  0
  2  3  2  0
  3  4  1  0
  4  5  2  0
  5  6  1  0
  2  7  1  0
  6  7  2  0
  5  8  1  0
  6  9  1  0
M  END
>  <ID>  (1) 
conformer_0

$$$$
