
     RDKit          3D

  6  6  0  0  0  0  0  0  0  0999 V2000
  128.7938   51.6145   31.7969 C   0  0  0  0  0  0  0  0  0  0  0  0
  129.5610   52.7395   31.4098 C   0  0  0  0  0  0  0  0  0  0  0  0
  129.5790   51.1388   32.8816 O   0  0  0  0  0  0  0  0  0  0  0  0
  130.7234   52.9017   32.3070 C   0  0  0  0  0  0  0  0  0  0  0  0
  130.7963   51.6084   32.9457 C   0  0  0  0  0  0  0  0  0  0  0  0
  130.5886   53.8809   33.2987 O   0  0  0  0  0  0  0  0  0  0  0  0
  1  2  1  0
  1  3  1  0
  2  4  1  0
  3  5  1  0
  4  5  1  0
  4  6  1  0
M  END
>  <ID>  (1) 
conformer_0

$$$$
