
     RDKit          3D

  6  6  0  0  0  0  0  0  0  0999 V2000
  128.7938   51.6145   31.7969 C   0  0  0  0  0  0  0  0  0  0  0  0
  129.5610   52.7395   31.4098 C   0  0  0  0  0  0  0  0  0  0  0  0
  129.3007   50.9236   32.9548 C   0  0  0  0  0  0  0  0  0  0  0  0
  130.7802   52.7678   32.3302 C   0  0  0  0  0  0  0  0  0  0  0  0
  130.4993   51.7807   33.2950 N   0  0  0  0  0  0  0  0  0  0  0  0
  131.8203   53.3420   32.2668 O   0  0  0  0  0  0  0  0  0  0  0  0
  1  2  1  0
  1  3  1  0
  2  4  1  0
  3  5  1  0
  4  5  1  0
  4  6  2  0
M  END
>  <ID>  (1) 
conformer_0

$$$$
