
     RDKit          3D

 10 11  0  0  0  0  0  0  0  0999 V2000
  130.7908   51.7408   32.9890 N   0  0  0  0  0  0  0  0  0  0  0  0
  131.4639   52.6425   32.6560 C   0  0  0  0  0  0  0  0  0  0  0  0
  129.5701   51.4745   32.4110 C   0  0  0  0  0  0  0  0  0  0  0  0
  131.0910   53.5207   31.6356 C   0  0  0  0  0  0  0  0  0  0  0  0
  132.7921   52.9112   33.2740 C   0  0  0  0  0  0  0  0  0  0  0  0
  131.9110   54.5442   31.1880 C   0  0  0  0  0  0  0  0  0  0  0  0
  133.1807   54.7078   31.6859 C   0  0  0  0  0  0  0  0  0  0  0  0
  129.7766   53.1236   31.2236 N   0  0  0  0  0  0  0  0  0  0  0  0
  133.6170   53.9117   32.7115 C   0  0  0  0  0  0  0  0  0  0  0  0
  129.0928   52.2284   31.5288 C   0  0  0  0  0  0  0  0  0  0  0  0
  1  2  1  0
  1  3  2  0
  2  4  2  0
  2  5  1  0
  4  6  1  0
  6  7  2  0
  4  8  1  0
  5  9  2  0
  7  9  1  0
  3 10  1  0
  8 10  2  0
M  END
>  <ID>  (1) 
conformer_0

$$$$
