
     RDKit          3D

  9  9  0  0  0  0  0  0  0  0999 V2000
  131.1017   51.9808   33.1904 C   0  0  0  0  0  0  0  0  0  0  0  0
  131.7357   52.9750   32.8762 C   0  0  0  0  0  0  0  0  0  0  0  0
  131.4234   53.8145   32.0653 C   0  0  0  0  0  0  0  0  0  0  0  0
  129.8678   51.7649   32.3944 C   0  0  0  0  0  0  0  0  0  0  0  0
  129.5021   52.5012   31.4092 C   0  0  0  0  0  0  0  0  0  0  0  0
  130.4040   53.7018   31.2436 C   0  0  0  0  0  0  0  0  0  0  0  0
  132.8694   53.0502   33.8184 N   0  0  0  0  0  0  0  0  0  0  0  0
  128.9946   50.5854   32.5883 C   0  0  0  0  0  0  0  0  0  0  0  0
  134.0747   53.4318   33.2941 O   0  0  0  0  0  0  0  0  0  0  0  0
  1  2  2  0
  2  3  1  0
  1  4  1  0
  4  5  2  0
  3  6  2  0
  5  6  1  0
  2  7  1  0
  4  8  1  0
  7  9  1  0
M  END
>  <ID>  (1) 
conformer_0

$$$$
