
     RDKit          3D

  8  8  0  0  0  0  0  0  0  0999 V2000
  132.2360   52.6390   33.3729 C   0  0  0  0  0  0  0  0  0  0  0  0
  131.1052   52.5171   32.6341 N   0  0  0  0  0  0  0  0  0  0  0  0
  130.6312   53.5489   31.8852 C   0  0  0  0  0  0  0  0  0  0  0  0
  130.1926   51.4288   32.7697 C   0  0  0  0  0  0  0  0  0  0  0  0
  133.1158   53.6825   32.9407 C   0  0  0  0  0  0  0  0  0  0  0  0
  131.5905   54.4411   31.3281 C   0  0  0  0  0  0  0  0  0  0  0  0
  132.6620   54.7598   32.1698 N   0  0  0  0  0  0  0  0  0  0  0  0
  128.7792   51.6670   32.5645 C   0  0  0  0  0  0  0  0  0  0  0  0
  1  2  1  0
  2  3  1  0
  2  4  1  0
  1  5  1  0
  3  6  1  0
  5  7  1  0
  6  7  1  0
  4  8  1  0
M  END
>  <ID>  (1) 
conformer_0

$$$$
