
     RDKit          3D

 10 10  0  0  0  0  0  0  0  0999 V2000
  130.7908   51.7408   32.9890 N   0  0  0  0  0  0  0  0  0  0  0  0
  131.4639   52.6425   32.6560 C   0  0  0  0  0  0  0  0  0  0  0  0
  131.1896   53.5995   31.9538 N   0  0  0  0  0  0  0  0  0  0  0  0
  131.9443   54.6760   31.5189 C   0  0  0  0  0  0  0  0  0  0  0  0
  133.0936   54.8440   31.9262 O   0  0  0  0  0  0  0  0  0  0  0  0
  131.3973   55.4831   30.4503 C   0  0  0  0  0  0  0  0  0  0  0  0
  132.6371   52.6992   33.6869 C   0  0  0  0  0  0  0  0  0  0  0  0
  129.8006   53.5490   31.5314 C   0  0  0  0  0  0  0  0  0  0  0  0
  129.3532   52.2371   31.6810 C   0  0  0  0  0  0  0  0  0  0  0  0
  129.6300   51.3736   32.5090 C   0  0  0  0  0  0  0  0  0  0  0  0
  1  2  2  0
  2  3  1  0
  3  4  1  0
  4  5  2  0
  4  6  1  0
  2  7  1  0
  3  8  1  0
  8  9  1  0
  1 10  1  0
  9 10  2  0
M  END
>  <ID>  (1) 
conformer_0

$$$$
