
     RDKit          3D

  9  9  0  0  0  0  0  0  0  0999 V2000
  129.6916   51.7935   32.7673 N   0  0  0  0  0  0  0  0  0  0  0  0
  130.8770   51.7767   32.8945 C   0  0  0  0  0  0  0  0  0  0  0  0
  128.8873   50.5650   32.8385 C   0  0  0  0  0  0  0  0  0  0  0  0
  131.6332   53.0788   32.8269 C   0  0  0  0  0  0  0  0  0  0  0  0
  129.3923   52.5053   31.4132 C   0  0  0  0  0  0  0  0  0  0  0  0
  133.0255   53.2188   33.1970 C   0  0  0  0  0  0  0  0  0  0  0  0
  129.9442   53.7784   31.5138 C   0  0  0  0  0  0  0  0  0  0  0  0
  131.3530   53.7116   31.6566 O   0  0  0  0  0  0  0  0  0  0  0  0
  133.4938   52.3529   33.9854 O   0  0  0  0  0  0  0  0  0  0  0  0
  1  2  1  0
  1  3  1  0
  2  4  1  0
  1  5  1  0
  4  6  1  0
  5  7  1  0
  4  8  1  0
  7  8  1  0
  6  9  1  0
M  END
>  <ID>  (1) 
conformer_0

$$$$
