
     RDKit          3D

 10 11  0  0  0  0  0  0  0  0999 V2000
  130.7908   51.7408   32.9890 N   0  0  0  0  0  0  0  0  0  0  0  0
  129.7583   51.8253   32.2085 C   0  0  0  0  0  0  0  0  0  0  0  0
  131.7109   52.7611   32.9139 C   0  0  0  0  0  0  0  0  0  0  0  0
  128.8200   50.7166   32.1914 C   0  0  0  0  0  0  0  0  0  0  0  0
  131.3673   53.7010   32.0550 C   0  0  0  0  0  0  0  0  0  0  0  0
  130.2408   53.3586   31.3056 C   0  0  0  0  0  0  0  0  0  0  0  0
  132.8134   52.8386   33.5805 N   0  0  0  0  0  0  0  0  0  0  0  0
  133.7200   53.7608   33.4836 C   0  0  0  0  0  0  0  0  0  0  0  0
  132.3271   54.6215   31.7053 C   0  0  0  0  0  0  0  0  0  0  0  0
  133.5619   54.6308   32.5235 C   0  0  0  0  0  0  0  0  0  0  0  0
  1  2  1  0
  1  3  1  0
  2  4  1  0
  3  5  1  0
  2  6  1  0
  5  6  1  0
  3  7  2  0
  7  8  1  0
  5  9  2  0
  8 10  2  0
  9 10  1  0
M  END
>  <ID>  (1) 
conformer_0

$$$$
