
     RDKit          3D

 10 11  0  0  0  0  0  0  0  0999 V2000
  130.7908   51.7408   32.9890 N   0  0  0  0  0  0  0  0  0  0  0  0
  129.7583   51.8253   32.2085 C   0  0  0  0  0  0  0  0  0  0  0  0
  131.7109   52.7611   32.9139 C   0  0  0  0  0  0  0  0  0  0  0  0
  131.3997   53.7513   32.0427 N   0  0  0  0  0  0  0  0  0  0  0  0
  132.8508   52.7155   33.6117 N   0  0  0  0  0  0  0  0  0  0  0  0
  133.5208   53.9126   33.1694 C   0  0  0  0  0  0  0  0  0  0  0  0
  132.3459   54.5587   31.8311 C   0  0  0  0  0  0  0  0  0  0  0  0
  130.2799   53.7112   31.2380 C   0  0  0  0  0  0  0  0  0  0  0  0
  129.4101   52.7338   31.3737 C   0  0  0  0  0  0  0  0  0  0  0  0
  128.6719   50.9192   32.5348 O   0  0  0  0  0  0  0  0  0  0  0  0
  1  2  1  0
  1  3  1  0
  3  4  1  0
  3  5  2  0
  5  6  1  0
  4  7  1  0
  6  7  2  0
  4  8  1  0
  2  9  1  0
  8  9  2  0
  2 10  2  0
M  END
>  <ID>  (1) 
conformer_0

$$$$
