
     RDKit          3D

 10 11  0  0  0  0  0  0  0  0999 V2000
  130.7908   51.7408   32.9890 N   0  0  0  0  0  0  0  0  0  0  0  0
  131.4639   52.6425   32.6560 C   0  0  0  0  0  0  0  0  0  0  0  0
  131.0988   53.5005   31.6805 N   0  0  0  0  0  0  0  0  0  0  0  0
  129.8594   52.7838   31.3971 C   0  0  0  0  0  0  0  0  0  0  0  0
  129.6948   51.7456   32.1465 C   0  0  0  0  0  0  0  0  0  0  0  0
  131.7499   54.5478   31.1959 C   0  0  0  0  0  0  0  0  0  0  0  0
  128.5410   50.8860   32.2077 C   0  0  0  0  0  0  0  0  0  0  0  0
  133.0473   54.7101   31.5091 C   0  0  0  0  0  0  0  0  0  0  0  0
  133.4536   53.7887   32.6891 C   0  0  0  0  0  0  0  0  0  0  0  0
  132.7350   52.9040   33.2831 C   0  0  0  0  0  0  0  0  0  0  0  0
  1  2  2  0
  2  3  1  0
  3  4  1  0
  1  5  1  0
  4  5  2  0
  3  6  1  0
  5  7  1  0
  6  8  2  0
  8  9  1  0
  2 10  1  0
  9 10  2  0
M  END
>  <ID>  (1) 
conformer_0

$$$$
