
     RDKit          3D

  6  6  0  0  0  0  0  0  0  0999 V2000
  131.0627   52.0896   33.1634 N   0  0  0  0  0  0  0  0  0  0  0  0
  130.0816   51.3843   32.7479 C   0  0  0  0  0  0  0  0  0  0  0  0
  129.2343   51.9507   31.7382 C   0  0  0  0  0  0  0  0  0  0  0  0
  131.1629   53.1554   32.3113 C   0  0  0  0  0  0  0  0  0  0  0  0
  129.8250   53.0797   31.2876 C   0  0  0  0  0  0  0  0  0  0  0  0
  132.0081   54.0959   32.2969 O   0  0  0  0  0  0  0  0  0  0  0  0
  1  2  2  0
  2  3  1  0
  1  4  1  0
  3  5  1  0
  4  5  1  0
  4  6  2  0
M  END
>  <ID>  (1) 
conformer_0

$$$$
