
     RDKit          3D

  9 10  0  0  0  0  0  0  0  0999 V2000
  129.0724   51.2149   32.5229 C   0  0  0  0  0  0  0  0  0  0  0  0
  129.1943   52.3251   31.8279 C   0  0  0  0  0  0  0  0  0  0  0  0
  130.2386   51.6372   33.0032 C   0  0  0  0  0  0  0  0  0  0  0  0
  130.0387   53.0607   31.0541 C   0  0  0  0  0  0  0  0  0  0  0  0
  131.1638   53.7986   31.8285 C   0  0  0  0  0  0  0  0  0  0  0  0
  132.2247   54.4367   31.3442 C   0  0  0  0  0  0  0  0  0  0  0  0
  132.0603   54.9239   30.0614 O   0  0  0  0  0  0  0  0  0  0  0  0
  131.2465   52.6553   32.8902 N   0  0  0  0  0  0  0  0  0  0  0  0
  133.3685   54.4393   31.9481 O   0  0  0  0  0  0  0  0  0  0  0  0
  1  2  1  0
  1  3  1  0
  2  3  1  0
  2  4  1  0
  4  5  1  0
  5  6  1  0
  6  7  2  0
  3  8  1  0
  5  8  1  0
  6  9  1  0
M  END
>  <ID>  (1) 
conformer_0

$$$$
