
     RDKit          3D

  9  9  0  0  0  0  0  0  0  0999 V2000
  130.1309   51.2915   32.8792 C   0  0  0  0  0  0  0  0  0  0  0  0
  131.0272   52.1312   32.7727 C   0  0  0  0  0  0  0  0  0  0  0  0
  130.8206   53.2499   31.9635 C   0  0  0  0  0  0  0  0  0  0  0  0
  129.7762   53.2801   31.0387 C   0  0  0  0  0  0  0  0  0  0  0  0
  129.0072   51.2319   31.9204 C   0  0  0  0  0  0  0  0  0  0  0  0
  128.9251   52.2662   31.0146 C   0  0  0  0  0  0  0  0  0  0  0  0
  131.7379   54.3607   31.9642 N   0  0  0  0  0  0  0  0  0  0  0  0
  132.5661   54.4350   32.9296 O   0  0  0  0  0  0  0  0  0  0  0  0
  131.7677   55.2404   31.0549 O   0  0  0  0  0  0  0  0  0  0  0  0
  1  2  1  0
  2  3  2  0
  3  4  1  0
  1  5  2  0
  4  6  2  0
  5  6  1  0
  3  7  1  0
  7  8  1  0
  7  9  2  0
M  CHG  2   7   1   8  -1
M  END
>  <ID>  (1) 
conformer_0

$$$$
