
     RDKit          3D

 10 11  0  0  0  0  0  0  0  0999 V2000
  130.7908   51.7408   32.9890 N   0  0  0  0  0  0  0  0  0  0  0  0
  129.7583   51.8253   32.2085 C   0  0  0  0  0  0  0  0  0  0  0  0
  129.4391   52.7783   31.5035 N   0  0  0  0  0  0  0  0  0  0  0  0
  130.3355   53.7297   31.3404 C   0  0  0  0  0  0  0  0  0  0  0  0
  131.7796   52.5493   32.7824 C   0  0  0  0  0  0  0  0  0  0  0  0
  131.6237   53.6302   32.0364 C   0  0  0  0  0  0  0  0  0  0  0  0
  133.0238   52.6016   33.5296 C   0  0  0  0  0  0  0  0  0  0  0  0
  132.7545   54.4908   32.0104 N   0  0  0  0  0  0  0  0  0  0  0  0
  128.5584   50.7169   32.5183 C   0  0  0  0  0  0  0  0  0  0  0  0
  133.6321   53.8558   32.8766 C   0  0  0  0  0  0  0  0  0  0  0  0
  1  2  2  0
  2  3  1  0
  3  4  2  0
  1  5  1  0
  4  6  1  0
  5  6  2  0
  5  7  1  0
  6  8  1  0
  2  9  1  0
  7 10  2  0
  8 10  2  0
M  END
>  <ID>  (1) 
conformer_0

$$$$
