
     RDKit          3D

 10 10  0  0  0  0  0  0  0  0999 V2000
  130.7908   51.7408   32.9890 N   0  0  0  0  0  0  0  0  0  0  0  0
  129.6517   51.1038   32.6633 C   0  0  0  0  0  0  0  0  0  0  0  0
  131.0121   52.9069   32.4632 C   0  0  0  0  0  0  0  0  0  0  0  0
  132.1899   53.6865   32.7725 C   0  0  0  0  0  0  0  0  0  0  0  0
  128.7980   51.5684   31.7407 C   0  0  0  0  0  0  0  0  0  0  0  0
  132.6217   54.5605   32.0328 O   0  0  0  0  0  0  0  0  0  0  0  0
  132.8254   53.3967   33.8688 O   0  0  0  0  0  0  0  0  0  0  0  0
  130.0147   53.2106   31.3954 C   0  0  0  0  0  0  0  0  0  0  0  0
  129.1554   52.6625   31.1340 N   0  0  0  0  0  0  0  0  0  0  0  0
  133.8989   54.1898   34.2710 C   0  0  0  0  0  0  0  0  0  0  0  0
  1  2  2  0
  1  3  1  0
  3  4  1  0
  2  5  1  0
  4  6  2  0
  4  7  1  0
  3  8  2  0
  5  9  2  0
  8  9  1  0
  7 10  1  0
M  END
>  <ID>  (1) 
conformer_0

$$$$
