
     RDKit          3D

 10 11  0  0  0  0  0  0  0  0999 V2000
  130.7908   51.7408   32.9890 N   0  0  0  0  0  0  0  0  0  0  0  0
  131.4639   52.6425   32.6560 C   0  0  0  0  0  0  0  0  0  0  0  0
  132.8373   52.9146   33.2298 C   0  0  0  0  0  0  0  0  0  0  0  0
  133.5872   53.9875   32.8009 C   0  0  0  0  0  0  0  0  0  0  0  0
  131.0825   53.5437   31.6775 C   0  0  0  0  0  0  0  0  0  0  0  0
  133.0945   54.7630   31.7939 C   0  0  0  0  0  0  0  0  0  0  0  0
  131.7384   54.4850   31.3276 C   0  0  0  0  0  0  0  0  0  0  0  0
  129.6224   51.8980   32.2140 C   0  0  0  0  0  0  0  0  0  0  0  0
  129.8121   52.9725   31.4049 N   0  0  0  0  0  0  0  0  0  0  0  0
  128.4392   51.0670   32.2269 C   0  0  0  0  0  0  0  0  0  0  0  0
  1  2  2  0
  2  3  1  0
  3  4  2  0
  2  5  1  0
  4  6  1  0
  5  7  1  0
  6  7  2  0
  1  8  1  0
  5  9  2  0
  8  9  1  0
  8 10  1  0
M  END
>  <ID>  (1) 
conformer_0

$$$$
