
     RDKit          3D

 10 10  0  0  0  0  0  0  0  0999 V2000
  130.7908   51.7408   32.9890 N   0  0  0  0  0  0  0  0  0  0  0  0
  131.4639   52.6425   32.6560 C   0  0  0  0  0  0  0  0  0  0  0  0
  129.5863   51.5368   32.4397 C   0  0  0  0  0  0  0  0  0  0  0  0
  131.2014   53.5439   31.6341 C   0  0  0  0  0  0  0  0  0  0  0  0
  130.0042   53.3833   30.9684 C   0  0  0  0  0  0  0  0  0  0  0  0
  132.1563   54.5612   31.2627 C   0  0  0  0  0  0  0  0  0  0  0  0
  133.2699   54.7204   31.9881 O   0  0  0  0  0  0  0  0  0  0  0  0
  128.6895   50.4925   32.7149 C   0  0  0  0  0  0  0  0  0  0  0  0
  129.2826   52.2669   31.4602 C   0  0  0  0  0  0  0  0  0  0  0  0
  132.0243   55.2690   30.1939 O   0  0  0  0  0  0  0  0  0  0  0  0
  1  2  2  0
  1  3  1  0
  2  4  1  0
  4  5  2  0
  4  6  1  0
  6  7  2  0
  3  8  1  0
  3  9  2  0
  5  9  1  0
  6 10  1  0
M  END
>  <ID>  (1) 
conformer_0

$$$$
