
     RDKit          3D

 10 10  0  0  0  0  0  0  0  0999 V2000
  131.1017   51.9808   33.1904 N   0  0  0  0  0  0  0  0  0  0  0  0
  131.8615   52.8307   32.8931 C   0  0  0  0  0  0  0  0  0  0  0  0
  131.5398   53.6662   31.8622 N   0  0  0  0  0  0  0  0  0  0  0  0
  133.0199   53.1118   33.6355 C   0  0  0  0  0  0  0  0  0  0  0  0
  133.8844   54.0941   33.1450 C   0  0  0  0  0  0  0  0  0  0  0  0
  132.4113   54.5860   31.4813 C   0  0  0  0  0  0  0  0  0  0  0  0
  133.5973   54.8284   32.0661 N   0  0  0  0  0  0  0  0  0  0  0  0
  129.7803   51.6193   32.4391 C   0  0  0  0  0  0  0  0  0  0  0  0
  132.1277   55.3540   30.3027 O   0  0  0  0  0  0  0  0  0  0  0  0
  135.0085   54.3756   33.7268 O   0  0  0  0  0  0  0  0  0  0  0  0
  1  2  1  0
  2  3  2  0
  2  4  1  0
  4  5  1  0
  3  6  1  0
  5  7  1  0
  6  7  1  0
  1  8  1  0
  6  9  2  0
  5 10  2  0
M  END
>  <ID>  (1) 
conformer_0

$$$$
