
     RDKit          3D

  7  6  0  0  0  0  0  0  0  0999 V2000
  129.6916   51.7935   32.7673 N   0  0  0  0  0  0  0  0  0  0  0  0
  130.8770   51.7767   32.8945 C   0  0  0  0  0  0  0  0  0  0  0  0
  131.4384   52.9502   32.9785 N   0  0  0  0  0  0  0  0  0  0  0  0
  132.8285   53.1653   33.2570 C   0  0  0  0  0  0  0  0  0  0  0  0
  133.6624   52.3098   33.5765 O   0  0  0  0  0  0  0  0  0  0  0  0
  128.9632   50.7969   32.0625 C   0  0  0  0  0  0  0  0  0  0  0  0
  133.4713   54.5190   32.8843 C   0  0  0  0  0  0  0  0  0  0  0  0
  1  2  1  0
  2  3  1  0
  3  4  1  0
  4  5  2  0
  1  6  1  0
  4  7  1  0
M  END
>  <ID>  (1) 
conformer_0

$$$$
