
     RDKit          3D

  8  9  0  0  0  0  0  0  0  0999 V2000
  129.0309   51.3573   32.7978 C   0  0  0  0  0  0  0  0  0  0  0  0
  130.3956   51.5909   32.8564 C   0  0  0  0  0  0  0  0  0  0  0  0
  129.1663   52.0993   31.8269 C   0  0  0  0  0  0  0  0  0  0  0  0
  131.3213   52.6628   33.0840 N   0  0  0  0  0  0  0  0  0  0  0  0
  131.3185   53.7100   32.4277 C   0  0  0  0  0  0  0  0  0  0  0  0
  132.4432   54.6029   32.7505 C   0  0  0  0  0  0  0  0  0  0  0  0
  132.6017   52.2587   33.2725 C   0  0  0  0  0  0  0  0  0  0  0  0
  133.3538   53.5705   33.5242 C   0  0  0  0  0  0  0  0  0  0  0  0
  1  2  1  0
  1  3  1  0
  2  3  1  0
  2  4  1  0
  4  5  1  0
  5  6  1  0
  4  7  1  0
  6  8  1  0
  7  8  1  0
M  END
>  <ID>  (1) 
conformer_0

$$$$
