
     RDKit          3D

 10 11  0  0  0  0  0  0  0  0999 V2000
  130.7908   51.7408   32.9890 N   0  0  0  0  0  0  0  0  0  0  0  0
  129.7583   51.8253   32.2085 C   0  0  0  0  0  0  0  0  0  0  0  0
  131.7109   52.7611   32.9139 C   0  0  0  0  0  0  0  0  0  0  0  0
  131.2256   53.6626   31.8817 C   0  0  0  0  0  0  0  0  0  0  0  0
  129.9214   53.0226   31.4352 C   0  0  0  0  0  0  0  0  0  0  0  0
  128.5043   50.9885   32.2577 C   0  0  0  0  0  0  0  0  0  0  0  0
  132.9371   52.9447   33.5328 C   0  0  0  0  0  0  0  0  0  0  0  0
  132.0429   54.5410   31.3348 C   0  0  0  0  0  0  0  0  0  0  0  0
  133.3658   54.7752   31.8418 C   0  0  0  0  0  0  0  0  0  0  0  0
  133.6604   53.8500   33.1285 C   0  0  0  0  0  0  0  0  0  0  0  0
  1  2  1  0
  1  3  2  0
  3  4  1  0
  2  5  2  0
  4  5  1  0
  2  6  1  0
  3  7  1  0
  4  8  2  0
  8  9  1  0
  7 10  2  0
  9 10  2  0
M  END
>  <ID>  (1) 
conformer_0

$$$$
