
     RDKit          3D

  5  5  0  0  0  0  0  0  0  0999 V2000
  129.0309   51.3573   32.7978 C   0  0  0  0  0  0  0  0  0  0  0  0
  130.3956   51.5909   32.8564 C   0  0  0  0  0  0  0  0  0  0  0  0
  128.5288   52.1323   31.6974 C   0  0  0  0  0  0  0  0  0  0  0  0
  129.6026   52.9821   31.3022 C   0  0  0  0  0  0  0  0  0  0  0  0
  130.7381   52.5127   32.0591 N   0  0  0  0  0  0  0  0  0  0  0  0
  1  2  1  0
  1  3  1  0
  3  4  1  0
  2  5  2  0
  4  5  1  0
M  END
>  <ID>  (1) 
conformer_0

$$$$
