
     RDKit          3D

  6  6  0  0  0  0  0  0  0  0999 V2000
  130.1309   51.2915   32.8792 C   0  0  0  0  0  0  0  0  0  0  0  0
  129.5884   52.2649   31.9874 C   0  0  0  0  0  0  0  0  0  0  0  0
  129.1945   50.2413   32.9606 O   0  0  0  0  0  0  0  0  0  0  0  0
  131.1721   51.4674   33.3734 C   0  0  0  0  0  0  0  0  0  0  0  0
  130.4402   53.3299   31.8651 C   0  0  0  0  0  0  0  0  0  0  0  0
  131.7022   53.0843   32.6542 S   0  0  0  0  0  0  0  0  0  0  0  0
  1  2  1  0
  1  3  1  0
  1  4  2  0
  2  5  2  0
  4  6  1  0
  5  6  1  0
M  END
>  <ID>  (1) 
conformer_0

$$$$
