
     RDKit          3D

  7  7  0  0  0  0  0  0  0  0999 V2000
  128.9127   51.7369   32.1682 C   0  0  0  0  0  0  0  0  0  0  0  0
  130.1557   52.3128   32.2821 C   0  0  0  0  0  0  0  0  0  0  0  0
  131.1379   51.9715   33.1133 N   0  0  0  0  0  0  0  0  0  0  0  0
  132.2423   52.7316   33.1104 C   0  0  0  0  0  0  0  0  0  0  0  0
  130.3559   53.5095   31.4350 C   0  0  0  0  0  0  0  0  0  0  0  0
  132.0768   53.8364   32.0900 S   0  0  0  0  0  0  0  0  0  0  0  0
  133.3712   52.4738   33.9564 N   0  0  0  0  0  0  0  0  0  0  0  0
  1  2  1  0
  2  3  1  0
  3  4  2  0
  2  5  2  0
  4  6  1  0
  5  6  1  0
  4  7  1  0
M  END
>  <ID>  (1) 
conformer_0

$$$$
