
     RDKit          3D

  9  9  0  0  0  0  0  0  0  0999 V2000
  129.0148   51.3713   32.2987 C   0  0  0  0  0  0  0  0  0  0  0  0
  130.1635   52.3217   32.3320 C   0  0  0  0  0  0  0  0  0  0  0  0
  131.2243   52.2674   33.0959 N   0  0  0  0  0  0  0  0  0  0  0  0
  132.0934   53.3640   32.7812 C   0  0  0  0  0  0  0  0  0  0  0  0
  130.0892   53.2423   31.1949 C   0  0  0  0  0  0  0  0  0  0  0  0
  133.2581   53.5470   33.6093 N   0  0  0  0  0  0  0  0  0  0  0  0
  131.0377   54.1733   30.9733 C   0  0  0  0  0  0  0  0  0  0  0  0
  132.0743   54.1769   31.7698 N   0  0  0  0  0  0  0  0  0  0  0  0
  131.0006   54.9956   29.8382 N   0  0  0  0  0  0  0  0  0  0  0  0
  1  2  1  0
  2  3  1  0
  3  4  2  0
  2  5  2  0
  4  6  1  0
  5  7  1  0
  4  8  1  0
  7  8  2  0
  7  9  1  0
M  END
>  <ID>  (1) 
conformer_0

$$$$
