
     RDKit          3D

 10 11  0  0  0  0  0  0  0  0999 V2000
  131.0627   52.0896   33.1634 N   0  0  0  0  0  0  0  0  0  0  0  0
  130.0639   51.9645   32.3276 C   0  0  0  0  0  0  0  0  0  0  0  0
  129.7199   52.9033   31.4472 C   0  0  0  0  0  0  0  0  0  0  0  0
  131.7645   53.1713   32.6490 C   0  0  0  0  0  0  0  0  0  0  0  0
  131.0759   53.8268   31.5089 C   0  0  0  0  0  0  0  0  0  0  0  0
  132.9954   53.7788   32.9629 C   0  0  0  0  0  0  0  0  0  0  0  0
  133.4742   54.7538   32.2367 C   0  0  0  0  0  0  0  0  0  0  0  0
  128.8940   50.9430   32.6701 C   0  0  0  0  0  0  0  0  0  0  0  0
  131.5633   54.8017   30.8047 C   0  0  0  0  0  0  0  0  0  0  0  0
  132.8091   55.2460   31.1173 C   0  0  0  0  0  0  0  0  0  0  0  0
  1  2  1  0
  2  3  2  0
  1  4  2  0
  3  5  1  0
  4  5  1  0
  4  6  1  0
  6  7  2  0
  2  8  1  0
  5  9  1  0
  7 10  1  0
  9 10  2  0
M  END
>  <ID>  (1) 
conformer_0

$$$$
