
     RDKit          3D

 10 10  0  0  0  0  0  0  0  0999 V2000
  130.7908   51.7408   32.9890 N   0  0  0  0  0  0  0  0  0  0  0  0
  129.6517   51.1038   32.6633 C   0  0  0  0  0  0  0  0  0  0  0  0
  131.0121   52.9069   32.4632 C   0  0  0  0  0  0  0  0  0  0  0  0
  132.1899   53.6865   32.7725 C   0  0  0  0  0  0  0  0  0  0  0  0
  130.0246   53.3597   31.5009 C   0  0  0  0  0  0  0  0  0  0  0  0
  132.7464   54.4238   31.8486 C   0  0  0  0  0  0  0  0  0  0  0  0
  133.9271   55.2429   32.0189 C   0  0  0  0  0  0  0  0  0  0  0  0
  134.1478   55.9743   32.8531 O   0  0  0  0  0  0  0  0  0  0  0  0
  134.8250   55.1743   30.9578 O   0  0  0  0  0  0  0  0  0  0  0  0
  129.0004   52.1223   31.5056 C   0  0  0  0  0  0  0  0  0  0  0  0
  1  2  2  0
  1  3  1  0
  3  4  1  0
  3  5  2  0
  4  6  2  3
  6  7  1  0
  7  8  2  0
  7  9  1  0
  2 10  1  0
  5 10  1  0
M  END
>  <ID>  (1) 
conformer_0

$$$$
