
     RDKit          3D

  9  9  0  0  0  0  0  0  0  0999 V2000
  129.0148   51.3713   32.2987 C   0  0  0  0  0  0  0  0  0  0  0  0
  129.2849   52.5010   31.6634 O   0  0  0  0  0  0  0  0  0  0  0  0
  130.3609   53.2702   32.2183 C   0  0  0  0  0  0  0  0  0  0  0  0
  131.2675   52.6698   33.1509 C   0  0  0  0  0  0  0  0  0  0  0  0
  132.5945   53.0251   33.1872 C   0  0  0  0  0  0  0  0  0  0  0  0
  133.4450   52.3873   33.9647 O   0  0  0  0  0  0  0  0  0  0  0  0
  132.9642   54.3438   32.9741 O   0  0  0  0  0  0  0  0  0  0  0  0
  130.2859   50.7695   32.8805 C   0  0  0  0  0  0  0  0  0  0  0  0
  131.3348   51.2926   32.7557 O   0  0  0  0  0  0  0  0  0  0  0  0
  1  2  1  0
  2  3  1  0
  3  4  1  0
  4  5  1  0
  5  6  1  0
  5  7  2  0
  1  8  1  0
  4  9  1  0
  8  9  1  0
M  END
>  <ID>  (1) 
conformer_0

$$$$
