
     RDKit          3D

 10 11  0  0  0  0  0  0  0  0999 V2000
  131.3578   52.0399   33.0170 C   0  0  0  0  0  0  0  0  0  0  0  0
  131.8533   53.0873   32.7752 C   0  0  0  0  0  0  0  0  0  0  0  0
  130.0206   51.6834   32.5213 C   0  0  0  0  0  0  0  0  0  0  0  0
  133.1348   53.5842   33.2579 C   0  0  0  0  0  0  0  0  0  0  0  0
  129.3045   50.5085   32.7508 C   0  0  0  0  0  0  0  0  0  0  0  0
  133.7173   54.5102   32.4587 C   0  0  0  0  0  0  0  0  0  0  0  0
  132.7282   54.9691   31.4037 C   0  0  0  0  0  0  0  0  0  0  0  0
  129.6300   52.4599   31.3679 N   0  0  0  0  0  0  0  0  0  0  0  0
  130.6180   53.5698   31.2985 C   0  0  0  0  0  0  0  0  0  0  0  0
  131.6261   53.8529   31.6428 C   0  0  0  0  0  0  0  0  0  0  0  0
  1  2  2  0
  1  3  1  0
  2  4  1  0
  3  5  1  0
  4  6  2  0
  6  7  1  0
  3  8  2  0
  8  9  1  0
  2 10  1  0
  7 10  2  0
  9 10  1  0
M  END
>  <ID>  (1) 
conformer_0

$$$$
