
     RDKit          3D

  6  6  0  0  0  0  0  0  0  0999 V2000
  129.0123   51.4927   32.0115 C   0  0  0  0  0  0  0  0  0  0  0  0
  129.3717   52.6688   31.5625 C   0  0  0  0  0  0  0  0  0  0  0  0
  130.7226   53.0913   32.0276 C   0  0  0  0  0  0  0  0  0  0  0  0
  131.3415   52.5716   33.0307 O   0  0  0  0  0  0  0  0  0  0  0  0
  129.9745   50.6866   32.8203 C   0  0  0  0  0  0  0  0  0  0  0  0
  131.1984   51.2029   32.9488 C   0  0  0  0  0  0  0  0  0  0  0  0
  1  2  1  0
  2  3  1  0
  3  4  1  0
  1  5  1  0
  4  6  1  0
  5  6  1  0
M  END
>  <ID>  (1) 
conformer_0

$$$$
