
     RDKit          3D

  9 10  0  0  0  0  0  0  0  0999 V2000
  130.7566   51.7596   32.7938 C   0  0  0  0  0  0  0  0  0  0  0  0
  131.2897   52.7809   32.5529 C   0  0  0  0  0  0  0  0  0  0  0  0
  130.7818   53.5740   31.5740 C   0  0  0  0  0  0  0  0  0  0  0  0
  129.4861   51.4555   32.2909 C   0  0  0  0  0  0  0  0  0  0  0  0
  132.5614   53.1591   33.1002 C   0  0  0  0  0  0  0  0  0  0  0  0
  133.1984   54.2641   32.6355 C   0  0  0  0  0  0  0  0  0  0  0  0
  129.5045   53.0253   31.2910 S   0  0  0  0  0  0  0  0  0  0  0  0
  131.3533   54.5247   30.9978 C   0  0  0  0  0  0  0  0  0  0  0  0
  132.6883   54.9439   31.5222 C   0  0  0  0  0  0  0  0  0  0  0  0
  1  2  1  0
  2  3  2  0
  1  4  2  0
  2  5  1  0
  5  6  2  0
  3  7  1  0
  4  7  1  0
  3  8  1  0
  6  9  1  0
  8  9  2  0
M  END
>  <ID>  (1) 
conformer_0

$$$$
