
     RDKit          3D

 10 11  0  0  0  0  0  0  0  0999 V2000
  131.0627   52.0896   33.1634 N   0  0  0  0  0  0  0  0  0  0  0  0
  131.8449   52.9901   32.8001 C   0  0  0  0  0  0  0  0  0  0  0  0
  131.5180   53.6875   31.6411 N   0  0  0  0  0  0  0  0  0  0  0  0
  132.1762   54.7285   31.0914 C   0  0  0  0  0  0  0  0  0  0  0  0
  133.3414   55.0884   31.6548 C   0  0  0  0  0  0  0  0  0  0  0  0
  129.9034   51.7820   32.3435 C   0  0  0  0  0  0  0  0  0  0  0  0
  130.2463   53.1416   31.2305 C   0  0  0  0  0  0  0  0  0  0  0  0
  133.0374   53.4026   33.4113 C   0  0  0  0  0  0  0  0  0  0  0  0
  129.3028   50.9142   32.2533 O   0  0  0  0  0  0  0  0  0  0  0  0
  133.8031   54.4067   32.8670 C   0  0  0  0  0  0  0  0  0  0  0  0
  1  2  2  0
  2  3  1  0
  3  4  1  0
  4  5  2  0
  1  6  1  0
  3  7  1  0
  6  7  1  0
  2  8  1  0
  6  9  2  0
  5 10  1  0
  8 10  2  0
M  END
>  <ID>  (1) 
conformer_0

$$$$
