
     RDKit          3D

  5  5  0  0  0  0  0  0  0  0999 V2000
  130.0848   51.5906   32.6178 C   0  0  0  0  0  0  0  0  0  0  0  0
  129.6324   52.4472   31.7774 C   0  0  0  0  0  0  0  0  0  0  0  0
  131.3043   51.6859   33.2350 C   0  0  0  0  0  0  0  0  0  0  0  0
  131.7936   53.0622   32.7085 C   0  0  0  0  0  0  0  0  0  0  0  0
  130.4396   53.4820   32.0958 C   0  0  0  0  0  0  0  0  0  0  0  0
  1  2  1  0
  1  3  1  0
  3  4  1  0
  2  5  1  0
  4  5  1  0
M  END
>  <ID>  (1) 
conformer_0

$$$$
