
     RDKit          3D

  7  7  0  0  0  0  0  0  0  0999 V2000
  129.1503   51.1609   32.6159 C   0  0  0  0  0  0  0  0  0  0  0  0
  130.5201   51.5842   32.8442 C   0  0  0  0  0  0  0  0  0  0  0  0
  130.6976   52.7329   32.4482 N   0  0  0  0  0  0  0  0  0  0  0  0
  129.7828   53.4130   31.6992 C   0  0  0  0  0  0  0  0  0  0  0  0
  128.7173   52.2500   31.7790 C   0  0  0  0  0  0  0  0  0  0  0  0
  131.7291   53.3675   33.2225 C   0  0  0  0  0  0  0  0  0  0  0  0
  132.8332   52.8687   33.5287 C   0  0  0  0  0  0  0  0  0  0  0  0
  1  2  1  0
  2  3  1  0
  3  4  1  0
  1  5  1  0
  4  5  1  0
  3  6  1  0
  6  7  1  0
M  END
>  <ID>  (1) 
conformer_0

$$$$
