
     RDKit          3D

  9  9  0  0  0  0  0  0  0  0999 V2000
  130.7908   51.7408   32.9890 N   0  0  0  0  0  0  0  0  0  0  0  0
  131.4639   52.6425   32.6560 C   0  0  0  0  0  0  0  0  0  0  0  0
  131.0988   53.5005   31.6805 N   0  0  0  0  0  0  0  0  0  0  0  0
  131.7321   54.5642   31.1764 C   0  0  0  0  0  0  0  0  0  0  0  0
  132.9617   54.8506   31.5917 C   0  0  0  0  0  0  0  0  0  0  0  0
  129.7061   53.1759   31.4131 C   0  0  0  0  0  0  0  0  0  0  0  0
  133.2454   55.2648   32.5925 O   0  0  0  0  0  0  0  0  0  0  0  0
  133.9714   55.1331   30.6126 O   0  0  0  0  0  0  0  0  0  0  0  0
  129.5235   51.7950   32.2358 C   0  0  0  0  0  0  0  0  0  0  0  0
  1  2  2  0
  2  3  1  0
  3  4  1  0
  4  5  1  0
  3  6  1  0
  5  7  1  0
  5  8  2  0
  1  9  1  0
  6  9  2  0
M  END
>  <ID>  (1) 
conformer_0

$$$$
