
     RDKit          3D

  8  8  0  0  0  0  0  0  0  0999 V2000
  128.7597   52.0702   31.3271 C   0  0  0  0  0  0  0  0  0  0  0  0
  129.4081   51.2875   32.2427 C   0  0  0  0  0  0  0  0  0  0  0  0
  129.4980   53.2810   31.0902 C   0  0  0  0  0  0  0  0  0  0  0  0
  130.5783   51.7071   32.7494 C   0  0  0  0  0  0  0  0  0  0  0  0
  130.7989   53.1593   32.0426 N   0  0  0  0  0  0  0  0  0  0  0  0
  131.7383   54.0012   32.2120 C   0  0  0  0  0  0  0  0  0  0  0  0
  132.4178   53.8668   33.3662 O   0  0  0  0  0  0  0  0  0  0  0  0
  132.4507   54.5384   31.1514 C   0  0  0  0  0  0  0  0  0  0  0  0
  1  2  1  0
  1  3  2  0
  2  4  2  0
  3  5  1  0
  4  5  1  0
  5  6  1  0
  6  7  2  0
  6  8  1  0
M  END
>  <ID>  (1) 
conformer_0

$$$$
