
     RDKit          3D

  8  8  0  0  0  0  0  0  0  0999 V2000
  130.1309   51.2915   32.8792 C   0  0  0  0  0  0  0  0  0  0  0  0
  129.5884   52.2649   31.9874 C   0  0  0  0  0  0  0  0  0  0  0  0
  130.4542   53.3931   31.8010 C   0  0  0  0  0  0  0  0  0  0  0  0
  129.1560   50.1632   32.9483 C   0  0  0  0  0  0  0  0  0  0  0  0
  130.6463   53.9357   30.5858 O   0  0  0  0  0  0  0  0  0  0  0  0
  131.0764   51.4742   33.6182 C   0  0  0  0  0  0  0  0  0  0  0  0
  131.5440   53.4727   32.7501 C   0  0  0  0  0  0  0  0  0  0  0  0
  132.1090   52.4087   33.2191 C   0  0  0  0  0  0  0  0  0  0  0  0
  1  2  1  0
  2  3  1  0
  1  4  1  0
  3  5  2  0
  1  6  1  0
  3  7  1  0
  6  8  1  0
  7  8  1  0
M  END
>  <ID>  (1) 
conformer_0

$$$$
