
     RDKit          3D

 10 11  0  0  0  0  0  0  0  0999 V2000
  131.1017   51.9808   33.1904 N   0  0  0  0  0  0  0  0  0  0  0  0
  130.0937   51.8886   32.3419 C   0  0  0  0  0  0  0  0  0  0  0  0
  131.9850   53.0363   33.0247 C   0  0  0  0  0  0  0  0  0  0  0  0
  131.6490   53.8536   31.9758 C   0  0  0  0  0  0  0  0  0  0  0  0
  130.2947   53.1186   31.3351 C   0  0  0  0  0  0  0  0  0  0  0  0
  133.1077   53.2470   33.7607 C   0  0  0  0  0  0  0  0  0  0  0  0
  129.1153   51.1393   32.1780 O   0  0  0  0  0  0  0  0  0  0  0  0
  132.3223   54.8621   31.4812 C   0  0  0  0  0  0  0  0  0  0  0  0
  133.9175   54.2906   33.3365 C   0  0  0  0  0  0  0  0  0  0  0  0
  133.5593   55.0481   32.2260 C   0  0  0  0  0  0  0  0  0  0  0  0
  1  2  1  0
  1  3  1  0
  3  4  2  0
  2  5  1  0
  4  5  1  0
  3  6  1  0
  2  7  2  0
  4  8  1  0
  6  9  2  0
  8 10  2  0
  9 10  1  0
M  END
>  <ID>  (1) 
conformer_0

$$$$
