
     RDKit          3D

 10 11  0  0  0  0  0  0  0  0999 V2000
  130.1309   51.2915   32.8792 C   0  0  0  0  0  0  0  0  0  0  0  0
  131.0272   52.1312   32.7727 C   0  0  0  0  0  0  0  0  0  0  0  0
  130.8592   53.2614   31.9762 C   0  0  0  0  0  0  0  0  0  0  0  0
  131.8209   54.2958   31.8170 C   0  0  0  0  0  0  0  0  0  0  0  0
  132.8317   54.2669   32.5489 C   0  0  0  0  0  0  0  0  0  0  0  0
  128.9563   51.2865   31.9744 C   0  0  0  0  0  0  0  0  0  0  0  0
  132.3427   52.5081   33.4344 C   0  0  0  0  0  0  0  0  0  0  0  0
  129.6262   53.2079   31.4003 N   0  0  0  0  0  0  0  0  0  0  0  0
  133.0975   53.3003   33.4279 N   0  0  0  0  0  0  0  0  0  0  0  0
  128.7894   52.2767   31.3158 C   0  0  0  0  0  0  0  0  0  0  0  0
  1  2  2  0
  2  3  1  0
  3  4  1  0
  4  5  2  0
  1  6  1  0
  2  7  1  0
  3  8  2  0
  5  9  1  0
  7  9  2  0
  6 10  2  0
  8 10  1  0
M  END
>  <ID>  (1) 
conformer_0

$$$$
