
     RDKit          3D

  8  8  0  0  0  0  0  0  0  0999 V2000
  131.0627   52.0896   33.1634 N   0  0  0  0  0  0  0  0  0  0  0  0
  131.8449   52.9901   32.8001 C   0  0  0  0  0  0  0  0  0  0  0  0
  129.9122   51.7197   32.5099 C   0  0  0  0  0  0  0  0  0  0  0  0
  129.5374   52.3937   31.3476 C   0  0  0  0  0  0  0  0  0  0  0  0
  129.0262   50.7316   32.9696 C   0  0  0  0  0  0  0  0  0  0  0  0
  130.2326   53.4630   31.0473 C   0  0  0  0  0  0  0  0  0  0  0  0
  132.9833   53.4042   33.4958 C   0  0  0  0  0  0  0  0  0  0  0  0
  131.4579   53.7972   31.6225 N   0  0  0  0  0  0  0  0  0  0  0  0
  1  2  1  0
  1  3  2  0
  3  4  1  0
  3  5  1  0
  4  6  2  0
  2  7  1  0
  2  8  2  0
  6  8  1  0
M  END
>  <ID>  (1) 
conformer_0

$$$$
