
     RDKit          3D

  9  9  0  0  0  0  0  0  0  0999 V2000
  131.3578   52.0399   33.0170 C   0  0  0  0  0  0  0  0  0  0  0  0
  131.8533   53.0873   32.7752 C   0  0  0  0  0  0  0  0  0  0  0  0
  131.5531   53.8559   31.9177 C   0  0  0  0  0  0  0  0  0  0  0  0
  133.0631   53.5398   33.5442 O   0  0  0  0  0  0  0  0  0  0  0  0
  130.3953   53.5498   31.1175 C   0  0  0  0  0  0  0  0  0  0  0  0
  130.1509   51.5674   32.3918 C   0  0  0  0  0  0  0  0  0  0  0  0
  133.9670   54.3270   33.0993 C   0  0  0  0  0  0  0  0  0  0  0  0
  129.3842   50.4427   32.7134 O   0  0  0  0  0  0  0  0  0  0  0  0
  129.6610   52.3922   31.3722 C   0  0  0  0  0  0  0  0  0  0  0  0
  1  2  2  0
  2  3  1  0
  2  4  1  0
  3  5  2  0
  1  6  1  0
  4  7  1  0
  6  8  1  0
  5  9  1  0
  6  9  2  0
M  END
>  <ID>  (1) 
conformer_0

$$$$
