
     RDKit          3D

 10 10  0  0  0  0  0  0  0  0999 V2000
  131.1017   51.9808   33.1904 C   0  0  0  0  0  0  0  0  0  0  0  0
  131.7357   52.9750   32.8762 C   0  0  0  0  0  0  0  0  0  0  0  0
  131.4234   53.8145   32.0653 C   0  0  0  0  0  0  0  0  0  0  0  0
  129.8678   51.7649   32.3944 C   0  0  0  0  0  0  0  0  0  0  0  0
  132.8879   53.1846   33.7304 O   0  0  0  0  0  0  0  0  0  0  0  0
  129.4702   52.5614   31.4203 C   0  0  0  0  0  0  0  0  0  0  0  0
  130.3617   53.7276   31.2504 C   0  0  0  0  0  0  0  0  0  0  0  0
  128.8965   50.4842   32.6482 C   0  0  0  0  0  0  0  0  0  0  0  0
  132.3516   54.8786   31.7298 O   0  0  0  0  0  0  0  0  0  0  0  0
  134.0825   53.1704   33.0939 C   0  0  0  0  0  0  0  0  0  0  0  0
  1  2  2  0
  2  3  1  0
  1  4  1  0
  2  5  1  0
  4  6  2  0
  3  7  2  0
  6  7  1  0
  4  8  1  0
  3  9  1  0
  5 10  1  0
M  END
>  <ID>  (1) 
conformer_0

$$$$
