
     RDKit          3D

 10 10  0  0  0  0  0  0  0  0999 V2000
  131.0627   52.0896   33.1634 C   0  0  0  0  0  0  0  0  0  0  0  0
  131.7139   53.1139   32.7701 C   0  0  0  0  0  0  0  0  0  0  0  0
  129.8405   51.7094   32.6415 C   0  0  0  0  0  0  0  0  0  0  0  0
  129.3715   52.3188   31.4564 C   0  0  0  0  0  0  0  0  0  0  0  0
  131.2522   53.7966   31.5962 C   0  0  0  0  0  0  0  0  0  0  0  0
  130.1243   53.3749   30.9648 C   0  0  0  0  0  0  0  0  0  0  0  0
  132.8983   53.5035   33.3561 N   0  0  0  0  0  0  0  0  0  0  0  0
  132.0940   54.8271   31.0662 N   0  0  0  0  0  0  0  0  0  0  0  0
  133.3415   52.8540   34.4646 O   0  0  0  0  0  0  0  0  0  0  0  0
  133.7308   54.3615   32.7350 O   0  0  0  0  0  0  0  0  0  0  0  0
  1  2  2  0
  1  3  1  0
  3  4  2  0
  2  5  1  0
  4  6  1  0
  5  6  2  0
  2  7  1  0
  5  8  1  0
  7  9  1  0
  7 10  2  0
M  CHG  2   7   1   9  -1
M  END
>  <ID>  (1) 
conformer_0

$$$$
