
     RDKit          3D

  9  9  0  0  0  0  0  0  0  0999 V2000
  130.7908   51.7408   32.9890 C   0  0  0  0  0  0  0  0  0  0  0  0
  131.3725   52.7464   32.6750 C   0  0  0  0  0  0  0  0  0  0  0  0
  130.9248   53.6858   31.9579 C   0  0  0  0  0  0  0  0  0  0  0  0
  132.6645   53.0443   33.4136 C   0  0  0  0  0  0  0  0  0  0  0  0
  129.5263   51.5639   32.2263 C   0  0  0  0  0  0  0  0  0  0  0  0
  129.8122   53.5165   31.1540 C   0  0  0  0  0  0  0  0  0  0  0  0
  133.3181   53.9244   33.4487 O   0  0  0  0  0  0  0  0  0  0  0  0
  128.7701   50.3742   32.4669 C   0  0  0  0  0  0  0  0  0  0  0  0
  129.1008   52.4293   31.3352 C   0  0  0  0  0  0  0  0  0  0  0  0
  1  2  2  0
  2  3  1  0
  2  4  1  0
  1  5  1  0
  3  6  2  0
  4  7  2  0
  5  8  1  0
  5  9  2  0
  6  9  1  0
M  END
>  <ID>  (1) 
conformer_0

$$$$
