
     RDKit          3D

 10 10  0  0  0  0  0  0  0  0999 V2000
  131.1017   51.9808   33.1904 C   0  0  0  0  0  0  0  0  0  0  0  0
  131.7357   52.9750   32.8762 C   0  0  0  0  0  0  0  0  0  0  0  0
  129.8612   51.6611   32.4461 C   0  0  0  0  0  0  0  0  0  0  0  0
  129.5396   52.4858   31.4201 C   0  0  0  0  0  0  0  0  0  0  0  0
  131.4592   53.8325   31.8819 C   0  0  0  0  0  0  0  0  0  0  0  0
  130.3377   53.5534   31.1040 C   0  0  0  0  0  0  0  0  0  0  0  0
  132.9464   53.2243   33.6585 N   0  0  0  0  0  0  0  0  0  0  0  0
  133.9721   53.6693   33.0732 O   0  0  0  0  0  0  0  0  0  0  0  0
  132.9762   52.9056   34.8412 O   0  0  0  0  0  0  0  0  0  0  0  0
  129.0595   50.5784   32.7817 C   0  0  0  0  0  0  0  0  0  0  0  0
  1  2  1  0
  1  3  2  0
  3  4  1  0
  2  5  2  0
  4  6  2  0
  5  6  1  0
  2  7  1  0
  7  8  1  0
  7  9  2  0
  3 10  1  0
M  CHG  2   7   1   8  -1
M  END
>  <ID>  (1) 
conformer_0

$$$$
