
     RDKit          3D

 10 11  0  0  0  0  0  0  0  0999 V2000
  128.9929   51.6040   31.9181 C   0  0  0  0  0  0  0  0  0  0  0  0
  129.8187   51.2974   32.8502 O   0  0  0  0  0  0  0  0  0  0  0  0
  130.9490   52.1283   32.9098 C   0  0  0  0  0  0  0  0  0  0  0  0
  132.0293   51.9064   33.6659 C   0  0  0  0  0  0  0  0  0  0  0  0
  133.0170   52.9099   33.6621 C   0  0  0  0  0  0  0  0  0  0  0  0
  130.8306   53.2923   32.0274 C   0  0  0  0  0  0  0  0  0  0  0  0
  134.1573   52.6158   34.4660 O   0  0  0  0  0  0  0  0  0  0  0  0
  132.9989   53.9566   32.8432 C   0  0  0  0  0  0  0  0  0  0  0  0
  129.3771   52.8393   31.1499 C   0  0  0  0  0  0  0  0  0  0  0  0
  131.8535   54.1432   31.8920 C   0  0  0  0  0  0  0  0  0  0  0  0
  1  2  1  0
  2  3  1  0
  3  4  1  0
  4  5  2  0
  3  6  2  0
  5  7  1  0
  5  8  1  0
  1  9  2  0
  6  9  1  0
  6 10  1  0
  8 10  2  0
M  END
>  <ID>  (1) 
conformer_0

$$$$
