
     RDKit          3D

  9 10  0  0  0  0  0  0  0  0999 V2000
  128.8957   51.5760   31.9518 C   0  0  0  0  0  0  0  0  0  0  0  0
  129.8011   51.3535   32.8433 O   0  0  0  0  0  0  0  0  0  0  0  0
  130.9117   52.1659   32.8550 C   0  0  0  0  0  0  0  0  0  0  0  0
  132.0203   51.9932   33.5743 C   0  0  0  0  0  0  0  0  0  0  0  0
  129.3033   52.8071   31.1040 C   0  0  0  0  0  0  0  0  0  0  0  0
  132.9639   53.1303   33.5399 C   0  0  0  0  0  0  0  0  0  0  0  0
  132.6336   54.0581   32.4496 C   0  0  0  0  0  0  0  0  0  0  0  0
  130.6555   53.1914   31.6532 C   0  0  0  0  0  0  0  0  0  0  0  0
  131.5665   54.1596   31.5465 C   0  0  0  0  0  0  0  0  0  0  0  0
  1  2  1  0
  2  3  1  0
  3  4  1  0
  1  5  2  0
  4  6  2  0
  6  7  1  0
  3  8  2  0
  5  8  1  0
  7  9  2  0
  8  9  1  0
M  END
>  <ID>  (1) 
conformer_0

$$$$
