
     RDKit          3D

 10 10  0  0  0  0  0  0  0  0999 V2000
  130.0405   53.3469   31.0992 C   0  0  0  0  0  0  0  0  0  0  0  0
  131.1546   53.8637   31.5046 C   0  0  0  0  0  0  0  0  0  0  0  0
  129.3607   52.3222   31.8667 C   0  0  0  0  0  0  0  0  0  0  0  0
  131.8996   53.1192   32.5517 C   0  0  0  0  0  0  0  0  0  0  0  0
  130.0211   51.6538   32.7929 C   0  0  0  0  0  0  0  0  0  0  0  0
  129.3864   50.5935   33.4521 O   0  0  0  0  0  0  0  0  0  0  0  0
  133.2109   53.5141   32.8594 C   0  0  0  0  0  0  0  0  0  0  0  0
  131.3012   52.0506   33.1600 C   0  0  0  0  0  0  0  0  0  0  0  0
  133.9613   52.9049   33.7183 O   0  0  0  0  0  0  0  0  0  0  0  0
  133.9492   54.2580   32.0467 O   0  0  0  0  0  0  0  0  0  0  0  0
  1  2  1  0
  1  3  2  0
  2  4  2  0
  3  5  1  0
  5  6  1  0
  4  7  1  0
  4  8  1  0
  5  8  2  0
  7  9  1  0
  7 10  2  0
M  END
>  <ID>  (1) 
conformer_0

$$$$
