
     RDKit          3D

 10 11  0  0  0  0  0  0  0  0999 V2000
  131.0627   52.0896   33.1634 N   0  0  0  0  0  0  0  0  0  0  0  0
  131.8449   52.9901   32.8001 C   0  0  0  0  0  0  0  0  0  0  0  0
  131.5180   53.6875   31.6411 C   0  0  0  0  0  0  0  0  0  0  0  0
  132.9846   53.3299   33.4557 N   0  0  0  0  0  0  0  0  0  0  0  0
  129.9812   52.0019   32.2671 C   0  0  0  0  0  0  0  0  0  0  0  0
  132.2914   54.7058   31.1859 C   0  0  0  0  0  0  0  0  0  0  0  0
  130.2515   53.2648   31.1571 C   0  0  0  0  0  0  0  0  0  0  0  0
  128.7637   51.2363   32.2538 C   0  0  0  0  0  0  0  0  0  0  0  0
  133.7922   54.2616   33.0347 C   0  0  0  0  0  0  0  0  0  0  0  0
  133.5129   54.9221   31.8542 C   0  0  0  0  0  0  0  0  0  0  0  0
  1  2  2  0
  2  3  1  0
  2  4  1  0
  1  5  1  0
  3  6  1  0
  3  7  1  0
  5  7  2  0
  5  8  1  0
  4  9  2  0
  6 10  2  0
  9 10  1  0
M  END
>  <ID>  (1) 
conformer_0

$$$$
