
     RDKit          3D

  7  7  0  0  0  0  0  0  0  0999 V2000
  129.6916   51.7935   32.7673 C   0  0  0  0  0  0  0  0  0  0  0  0
  130.9196   52.0330   32.9316 N   0  0  0  0  0  0  0  0  0  0  0  0
  129.0189   52.3883   31.7466 C   0  0  0  0  0  0  0  0  0  0  0  0
  130.0957   53.2947   31.3021 C   0  0  0  0  0  0  0  0  0  0  0  0
  130.1718   54.2419   30.3297 C   0  0  0  0  0  0  0  0  0  0  0  0
  131.8568   51.5927   33.9200 C   0  0  0  0  0  0  0  0  0  0  0  0
  131.2311   53.0789   32.0911 N   0  0  0  0  0  0  0  0  0  0  0  0
  1  2  1  0
  1  3  2  0
  3  4  1  0
  4  5  1  0
  2  6  1  0
  2  7  1  0
  4  7  2  0
M  END
>  <ID>  (1) 
conformer_0

$$$$
