
     RDKit          3D

  5  5  0  0  0  0  0  0  0  0999 V2000
  129.6916   51.7935   32.7673 C   0  0  0  0  0  0  0  0  0  0  0  0
  130.9196   52.0330   32.9316 N   0  0  0  0  0  0  0  0  0  0  0  0
  129.0189   52.3883   31.7466 C   0  0  0  0  0  0  0  0  0  0  0  0
  130.0957   53.2947   31.3021 C   0  0  0  0  0  0  0  0  0  0  0  0
  131.2342   53.0642   32.0952 N   0  0  0  0  0  0  0  0  0  0  0  0
  1  2  1  0
  1  3  2  0
  3  4  1  0
  2  5  1  0
  4  5  2  0
M  END
>  <ID>  (1) 
conformer_0

$$$$
