
     RDKit          3D

 10 11  0  0  0  0  0  0  0  0999 V2000
  130.7908   51.7408   32.9890 N   0  0  0  0  0  0  0  0  0  0  0  0
  131.4639   52.6425   32.6560 C   0  0  0  0  0  0  0  0  0  0  0  0
  132.8373   52.9146   33.2298 C   0  0  0  0  0  0  0  0  0  0  0  0
  133.5872   53.9875   32.8009 C   0  0  0  0  0  0  0  0  0  0  0  0
  131.0825   53.5437   31.6775 C   0  0  0  0  0  0  0  0  0  0  0  0
  129.6181   51.8205   32.1831 C   0  0  0  0  0  0  0  0  0  0  0  0
  131.8792   54.6131   31.1807 C   0  0  0  0  0  0  0  0  0  0  0  0
  129.8174   52.9690   31.3585 N   0  0  0  0  0  0  0  0  0  0  0  0
  131.4547   55.3096   30.1017 O   0  0  0  0  0  0  0  0  0  0  0  0
  133.1055   54.7792   31.7193 C   0  0  0  0  0  0  0  0  0  0  0  0
  1  2  2  0
  2  3  1  0
  3  4  2  0
  2  5  1  0
  1  6  1  0
  5  7  1  0
  5  8  1  0
  6  8  2  0
  7  9  1  0
  4 10  1  0
  7 10  2  0
M  END
>  <ID>  (1) 
conformer_0

$$$$
