
     RDKit          3D

 10 10  0  0  0  0  0  0  0  0999 V2000
  130.0405   53.3469   31.0992 C   0  0  0  0  0  0  0  0  0  0  0  0
  129.9053   52.2699   32.0425 C   0  0  0  0  0  0  0  0  0  0  0  0
  128.7293   51.5233   31.8720 O   0  0  0  0  0  0  0  0  0  0  0  0
  131.3030   54.1154   31.3131 C   0  0  0  0  0  0  0  0  0  0  0  0
  132.2273   53.7457   32.2648 C   0  0  0  0  0  0  0  0  0  0  0  0
  133.4450   54.4747   32.3099 C   0  0  0  0  0  0  0  0  0  0  0  0
  133.2661   55.7601   32.3708 O   0  0  0  0  0  0  0  0  0  0  0  0
  130.8654   51.9134   32.8953 C   0  0  0  0  0  0  0  0  0  0  0  0
  134.5830   53.9552   32.5974 O   0  0  0  0  0  0  0  0  0  0  0  0
  132.0044   52.6182   33.0702 C   0  0  0  0  0  0  0  0  0  0  0  0
  1  2  1  0
  2  3  1  0
  1  4  2  0
  4  5  1  0
  5  6  1  0
  6  7  2  0
  2  8  2  0
  6  9  1  0
  5 10  2  0
  8 10  1  0
M  END
>  <ID>  (1) 
conformer_0

$$$$
