
     RDKit          3D

  8  8  0  0  0  0  0  0  0  0999 V2000
  128.7597   52.0702   31.3271 C   0  0  0  0  0  0  0  0  0  0  0  0
  129.4977   53.1010   31.1122 C   0  0  0  0  0  0  0  0  0  0  0  0
  129.1325   51.2619   32.4954 C   0  0  0  0  0  0  0  0  0  0  0  0
  130.7141   53.3953   31.8181 C   0  0  0  0  0  0  0  0  0  0  0  0
  131.4987   54.5097   31.4157 O   0  0  0  0  0  0  0  0  0  0  0  0
  131.1814   52.5628   32.8093 C   0  0  0  0  0  0  0  0  0  0  0  0
  132.7643   54.6579   31.9662 C   0  0  0  0  0  0  0  0  0  0  0  0
  130.3780   51.4587   33.1679 C   0  0  0  0  0  0  0  0  0  0  0  0
  1  2  2  0
  1  3  1  0
  2  4  1  0
  4  5  1  0
  4  6  2  0
  5  7  1  0
  3  8  2  0
  6  8  1  0
M  END
>  <ID>  (1) 
conformer_0

$$$$
