
     RDKit          3D

  9 10  0  0  0  0  0  0  0  0999 V2000
  128.9127   51.7369   32.1682 C   0  0  0  0  0  0  0  0  0  0  0  0
  129.5436   52.7307   31.6406 O   0  0  0  0  0  0  0  0  0  0  0  0
  130.8144   53.1117   32.1741 C   0  0  0  0  0  0  0  0  0  0  0  0
  129.6741   51.0180   33.1786 C   0  0  0  0  0  0  0  0  0  0  0  0
  131.6022   54.1006   31.8782 C   0  0  0  0  0  0  0  0  0  0  0  0
  131.1382   51.9035   32.9339 C   0  0  0  0  0  0  0  0  0  0  0  0
  132.2206   51.9477   33.6240 C   0  0  0  0  0  0  0  0  0  0  0  0
  132.8715   54.0603   32.5199 C   0  0  0  0  0  0  0  0  0  0  0  0
  133.1711   53.0674   33.3816 C   0  0  0  0  0  0  0  0  0  0  0  0
  1  2  1  0
  2  3  1  0
  1  4  1  0
  3  5  1  0
  3  6  2  0
  4  6  1  0
  6  7  1  0
  5  8  2  0
  7  9  2  0
  8  9  1  0
M  END
>  <ID>  (1) 
conformer_0

$$$$
