
     RDKit          3D

  9  9  0  0  0  0  0  0  0  0999 V2000
  131.1017   51.9808   33.1904 N   0  0  0  0  0  0  0  0  0  0  0  0
  130.0937   51.8886   32.3419 C   0  0  0  0  0  0  0  0  0  0  0  0
  129.8339   52.8506   31.4832 N   0  0  0  0  0  0  0  0  0  0  0  0
  131.8015   53.0997   32.7461 C   0  0  0  0  0  0  0  0  0  0  0  0
  128.9575   52.9743   30.4489 O   0  0  0  0  0  0  0  0  0  0  0  0
  128.9398   50.9493   32.4630 C   0  0  0  0  0  0  0  0  0  0  0  0
  130.9673   53.8296   31.5612 C   0  0  0  0  0  0  0  0  0  0  0  0
  132.9575   53.6797   33.2605 C   0  0  0  0  0  0  0  0  0  0  0  0
  131.1283   54.7562   31.0060 O   0  0  0  0  0  0  0  0  0  0  0  0
  1  2  1  0
  2  3  2  0
  1  4  2  0
  3  5  1  0
  2  6  1  0
  3  7  1  0
  4  7  1  0
  4  8  1  0
  7  9  2  0
M  CHG  2   3   1   5  -1
M  END
>  <ID>  (1) 
conformer_0

$$$$
