
     RDKit          3D

 10 11  0  0  0  0  0  0  0  0999 V2000
  130.7908   51.7408   32.9890 N   0  0  0  0  0  0  0  0  0  0  0  0
  129.7583   51.8253   32.2085 C   0  0  0  0  0  0  0  0  0  0  0  0
  131.7109   52.7611   32.9139 C   0  0  0  0  0  0  0  0  0  0  0  0
  131.3997   53.7513   32.0427 N   0  0  0  0  0  0  0  0  0  0  0  0
  132.8508   52.7155   33.6117 N   0  0  0  0  0  0  0  0  0  0  0  0
  133.5208   53.9126   33.1694 C   0  0  0  0  0  0  0  0  0  0  0  0
  129.9958   53.1474   31.5187 C   0  0  0  0  0  0  0  0  0  0  0  0
  134.8515   54.1038   33.6926 C   0  0  0  0  0  0  0  0  0  0  0  0
  128.5771   51.0680   32.0808 C   0  0  0  0  0  0  0  0  0  0  0  0
  132.5161   54.6122   31.9230 C   0  0  0  0  0  0  0  0  0  0  0  0
  1  2  1  0
  1  3  1  0
  3  4  1  0
  3  5  2  0
  5  6  1  0
  2  7  2  0
  4  7  1  0
  6  8  1  0
  2  9  1  0
  4 10  1  0
  6 10  2  0
M  END
>  <ID>  (1) 
conformer_0

$$$$
