
     RDKit          3D

  8  8  0  0  0  0  0  0  0  0999 V2000
  128.7938   51.6145   31.7969 C   0  0  0  0  0  0  0  0  0  0  0  0
  129.6128   51.3166   32.7801 O   0  0  0  0  0  0  0  0  0  0  0  0
  130.7344   51.7608   32.7762 C   0  0  0  0  0  0  0  0  0  0  0  0
  129.1357   53.0381   31.3220 C   0  0  0  0  0  0  0  0  0  0  0  0
  130.4547   53.0996   32.1386 N   0  0  0  0  0  0  0  0  0  0  0  0
  131.6937   51.6522   33.5624 O   0  0  0  0  0  0  0  0  0  0  0  0
  131.2654   54.1787   32.1820 C   0  0  0  0  0  0  0  0  0  0  0  0
  132.6070   54.1248   32.6292 C   0  0  0  0  0  0  0  0  0  0  0  0
  1  2  1  0
  2  3  1  0
  1  4  1  0
  3  5  1  0
  4  5  1  0
  3  6  2  0
  5  7  1  0
  7  8  1  0
M  END
>  <ID>  (1) 
conformer_0

$$$$
