
     RDKit          3D

 10 11  0  0  0  0  0  0  0  0999 V2000
  130.7908   51.7408   32.9890 N   0  0  0  0  0  0  0  0  0  0  0  0
  131.4639   52.6425   32.6560 C   0  0  0  0  0  0  0  0  0  0  0  0
  131.0988   53.5005   31.6805 N   0  0  0  0  0  0  0  0  0  0  0  0
  131.7321   54.5642   31.1764 C   0  0  0  0  0  0  0  0  0  0  0  0
  132.9617   54.8506   31.5917 C   0  0  0  0  0  0  0  0  0  0  0  0
  129.7232   53.0433   31.3747 C   0  0  0  0  0  0  0  0  0  0  0  0
  129.5107   51.8697   32.1579 C   0  0  0  0  0  0  0  0  0  0  0  0
  132.8357   53.0026   33.1846 C   0  0  0  0  0  0  0  0  0  0  0  0
  133.3975   52.2332   34.2144 O   0  0  0  0  0  0  0  0  0  0  0  0
  133.5401   53.9391   32.7178 C   0  0  0  0  0  0  0  0  0  0  0  0
  1  2  2  0
  2  3  1  0
  3  4  1  0
  4  5  2  0
  3  6  1  0
  1  7  1  0
  6  7  2  0
  2  8  1  0
  8  9  1  0
  5 10  1  0
  8 10  2  0
M  END
>  <ID>  (1) 
conformer_0

$$$$
