
     RDKit          3D

  6  6  0  0  0  0  0  0  0  0999 V2000
  130.0848   51.5906   32.6178 C   0  0  0  0  0  0  0  0  0  0  0  0
  129.6324   52.4472   31.7774 C   0  0  0  0  0  0  0  0  0  0  0  0
  131.3043   51.6859   33.2350 C   0  0  0  0  0  0  0  0  0  0  0  0
  129.1605   50.5670   32.7475 O   0  0  0  0  0  0  0  0  0  0  0  0
  130.5646   53.5104   31.8028 C   0  0  0  0  0  0  0  0  0  0  0  0
  131.6664   53.0168   32.6243 N   0  0  0  0  0  0  0  0  0  0  0  0
  1  2  1  0
  1  3  1  0
  1  4  2  0
  2  5  2  0
  3  6  2  0
  5  6  1  0
M  END
>  <ID>  (1) 
conformer_0

$$$$
