
     RDKit          3D

  7  6  0  0  0  0  0  0  0  0999 V2000
  130.0848   51.5906   32.6178 C   0  0  0  0  0  0  0  0  0  0  0  0
  129.6324   52.4472   31.7774 C   0  0  0  0  0  0  0  0  0  0  0  0
  130.5929   53.5875   31.6173 C   0  0  0  0  0  0  0  0  0  0  0  0
  130.8201   54.1061   30.5788 O   0  0  0  0  0  0  0  0  0  0  0  0
  131.3997   53.7630   32.7068 O   0  0  0  0  0  0  0  0  0  0  0  0
  128.9119   50.3335   32.8993 C   0  0  0  0  0  0  0  0  0  0  0  0
  132.7686   53.7659   32.5681 C   0  0  0  0  0  0  0  0  0  0  0  0
  1  2  1  0
  2  3  1  0
  3  4  2  0
  3  5  1  0
  1  6  1  0
  5  7  1  0
M  END
>  <ID>  (1) 
conformer_0

$$$$
