
     RDKit          3D

  9  9  0  0  0  0  0  0  0  0999 V2000
  130.7908   51.7408   32.9890 C   0  0  0  0  0  0  0  0  0  0  0  0
  131.3725   52.7464   32.6750 C   0  0  0  0  0  0  0  0  0  0  0  0
  130.8345   53.5715   31.7412 C   0  0  0  0  0  0  0  0  0  0  0  0
  132.5399   53.2227   33.3116 C   0  0  0  0  0  0  0  0  0  0  0  0
  133.2898   52.3898   34.0133 O   0  0  0  0  0  0  0  0  0  0  0  0
  129.6204   53.1550   31.1541 C   0  0  0  0  0  0  0  0  0  0  0  0
  129.5581   51.2236   32.4153 C   0  0  0  0  0  0  0  0  0  0  0  0
  129.0282   51.9786   31.4615 C   0  0  0  0  0  0  0  0  0  0  0  0
  133.1177   54.3985   33.0973 O   0  0  0  0  0  0  0  0  0  0  0  0
  1  2  1  0
  2  3  2  0
  2  4  1  0
  4  5  2  0
  3  6  1  0
  1  7  2  0
  6  8  2  0
  7  8  1  0
  4  9  1  0
M  END
>  <ID>  (1) 
conformer_0

$$$$
