
     RDKit          3D

 10 11  0  0  0  0  0  0  0  0999 V2000
  130.7908   51.7408   32.9890 N   0  0  0  0  0  0  0  0  0  0  0  0
  129.6517   51.1038   32.6633 C   0  0  0  0  0  0  0  0  0  0  0  0
  131.0121   52.9069   32.4632 C   0  0  0  0  0  0  0  0  0  0  0  0
  132.1899   53.6865   32.7725 C   0  0  0  0  0  0  0  0  0  0  0  0
  130.0246   53.3597   31.5009 C   0  0  0  0  0  0  0  0  0  0  0  0
  132.7464   54.4238   31.8486 C   0  0  0  0  0  0  0  0  0  0  0  0
  133.1260   53.2455   33.5019 N   0  0  0  0  0  0  0  0  0  0  0  0
  134.2101   54.0844   33.3520 C   0  0  0  0  0  0  0  0  0  0  0  0
  128.9449   52.0244   31.5105 C   0  0  0  0  0  0  0  0  0  0  0  0
  134.0612   54.7420   32.3388 N   0  0  0  0  0  0  0  0  0  0  0  0
  1  2  2  0
  1  3  1  0
  3  4  1  0
  3  5  2  0
  4  6  1  0
  4  7  2  0
  7  8  1  0
  2  9  1  0
  5  9  1  0
  6 10  1  0
  8 10  2  0
M  END
>  <ID>  (1) 
conformer_0

$$$$
