
     RDKit          3D

  7  7  0  0  0  0  0  0  0  0999 V2000
  129.0123   51.4927   32.0115 C   0  0  0  0  0  0  0  0  0  0  0  0
  129.9472   51.3751   32.8753 O   0  0  0  0  0  0  0  0  0  0  0  0
  130.9933   52.1999   32.8303 C   0  0  0  0  0  0  0  0  0  0  0  0
  130.8047   53.4013   32.0417 C   0  0  0  0  0  0  0  0  0  0  0  0
  129.4011   52.6161   31.1420 C   0  0  0  0  0  0  0  0  0  0  0  0
  131.9507   52.2390   33.6271 O   0  0  0  0  0  0  0  0  0  0  0  0
  131.8866   53.6817   31.3457 O   0  0  0  0  0  0  0  0  0  0  0  0
  1  2  1  0
  2  3  1  0
  3  4  1  0
  1  5  1  0
  4  5  1  0
  3  6  2  0
  4  7  1  0
M  END
>  <ID>  (1) 
conformer_0

$$$$
