
     RDKit          3D

  9 10  0  0  0  0  0  0  0  0999 V2000
  130.7908   51.7408   32.9890 N   0  0  0  0  0  0  0  0  0  0  0  0
  131.4639   52.6425   32.6560 C   0  0  0  0  0  0  0  0  0  0  0  0
  131.0988   53.5005   31.6805 N   0  0  0  0  0  0  0  0  0  0  0  0
  131.7321   54.5642   31.1764 C   0  0  0  0  0  0  0  0  0  0  0  0
  132.9617   54.8506   31.5917 C   0  0  0  0  0  0  0  0  0  0  0  0
  129.7232   53.0433   31.3747 C   0  0  0  0  0  0  0  0  0  0  0  0
  133.4308   54.0201   32.6901 C   0  0  0  0  0  0  0  0  0  0  0  0
  129.4786   51.8631   32.1639 C   0  0  0  0  0  0  0  0  0  0  0  0
  132.7568   52.9744   33.1864 C   0  0  0  0  0  0  0  0  0  0  0  0
  1  2  2  0
  2  3  1  0
  3  4  1  0
  4  5  2  0
  3  6  1  0
  5  7  1  0
  1  8  1  0
  6  8  2  0
  2  9  1  0
  7  9  2  0
M  END
>  <ID>  (1) 
conformer_0

$$$$
