
     RDKit          3D

  8  8  0  0  0  0  0  0  0  0999 V2000
  132.2360   52.6390   33.3729 C   0  0  0  0  0  0  0  0  0  0  0  0
  131.1052   52.5171   32.6341 N   0  0  0  0  0  0  0  0  0  0  0  0
  130.6312   53.5489   31.8852 C   0  0  0  0  0  0  0  0  0  0  0  0
  133.1539   53.6670   33.0346 C   0  0  0  0  0  0  0  0  0  0  0  0
  129.9457   51.7490   33.1555 C   0  0  0  0  0  0  0  0  0  0  0  0
  129.1024   51.2731   31.9795 C   0  0  0  0  0  0  0  0  0  0  0  0
  128.6835   52.4588   31.1134 C   0  0  0  0  0  0  0  0  0  0  0  0
  129.8003   53.2526   30.7670 C   0  0  0  0  0  0  0  0  0  0  0  0
  1  2  1  0
  2  3  1  0
  1  4  1  0
  2  5  1  0
  5  6  1  0
  6  7  1  0
  3  8  1  0
  7  8  1  0
M  END
>  <ID>  (1) 
conformer_0

$$$$
