
     RDKit          3D

  7  7  0  0  0  0  0  0  0  0999 V2000
  129.4733   52.4008   31.8461 C   0  0  0  0  0  0  0  0  0  0  0  0
  130.1666   51.5860   32.5362 C   0  0  0  0  0  0  0  0  0  0  0  0
  130.2635   53.5963   31.5605 C   0  0  0  0  0  0  0  0  0  0  0  0
  131.0738   52.0153   33.2425 N   0  0  0  0  0  0  0  0  0  0  0  0
  129.6539   50.4139   32.6102 O   0  0  0  0  0  0  0  0  0  0  0  0
  131.3681   53.4332   32.4877 C   0  0  0  0  0  0  0  0  0  0  0  0
  132.3478   54.0825   32.7853 O   0  0  0  0  0  0  0  0  0  0  0  0
  1  2  1  0
  1  3  1  0
  2  4  1  0
  2  5  2  0
  3  6  1  0
  4  6  1  0
  6  7  2  0
M  END
>  <ID>  (1) 
conformer_0

$$$$
