
     RDKit          3D

  6  6  0  0  0  0  0  0  0  0999 V2000
  129.7535   51.2343   32.7325 C   0  0  0  0  0  0  0  0  0  0  0  0
  130.8865   51.8711   32.8323 C   0  0  0  0  0  0  0  0  0  0  0  0
  130.9907   53.0817   32.1880 C   0  0  0  0  0  0  0  0  0  0  0  0
  128.8014   51.8050   31.7712 C   0  0  0  0  0  0  0  0  0  0  0  0
  129.6141   52.9584   31.3324 C   0  0  0  0  0  0  0  0  0  0  0  0
  130.9384   54.1749   32.9556 O   0  0  0  0  0  0  0  0  0  0  0  0
  1  2  1  0
  2  3  1  0
  1  4  1  0
  3  5  1  0
  4  5  1  0
  3  6  1  0
M  END
>  <ID>  (1) 
conformer_0

$$$$
