
     RDKit          3D

  5  4  0  0  0  0  0  0  0  0999 V2000
  128.7938   51.6145   31.7969 C   0  0  0  0  0  0  0  0  0  0  0  0
  129.5610   52.7395   31.4098 C   0  0  0  0  0  0  0  0  0  0  0  0
  130.7973   52.9139   32.2574 C   0  0  0  0  0  0  0  0  0  0  0  0
  131.0768   52.2208   33.2128 O   0  0  0  0  0  0  0  0  0  0  0  0
  131.5975   54.0016   32.0429 O   0  0  0  0  0  0  0  0  0  0  0  0
  1  2  1  0
  2  3  1  0
  3  4  1  0
  3  5  2  0
M  END
>  <ID>  (1) 
conformer_0

$$$$
