
     RDKit          3D

  9  9  0  0  0  0  0  0  0  0999 V2000
  131.1017   51.9808   33.1904 N   0  0  0  0  0  0  0  0  0  0  0  0
  131.8615   52.8307   32.8931 C   0  0  0  0  0  0  0  0  0  0  0  0
  130.0529   51.4427   32.6166 C   0  0  0  0  0  0  0  0  0  0  0  0
  131.3693   53.6187   31.9215 C   0  0  0  0  0  0  0  0  0  0  0  0
  132.0859   54.7548   31.4103 C   0  0  0  0  0  0  0  0  0  0  0  0
  133.2522   54.9696   31.8013 O   0  0  0  0  0  0  0  0  0  0  0  0
  131.5913   55.3715   30.3289 O   0  0  0  0  0  0  0  0  0  0  0  0
  129.7483   52.4402   31.4350 C   0  0  0  0  0  0  0  0  0  0  0  0
  130.3053   53.3700   31.2326 C   0  0  0  0  0  0  0  0  0  0  0  0
  1  2  1  0
  1  3  2  0
  2  4  2  0
  4  5  1  0
  5  6  2  0
  5  7  1  0
  3  8  1  0
  4  9  1  0
  8  9  2  0
M  END
>  <ID>  (1) 
conformer_0

$$$$
