
     RDKit          3D

  8  8  0  0  0  0  0  0  0  0999 V2000
  129.0724   51.2149   32.5229 C   0  0  0  0  0  0  0  0  0  0  0  0
  130.1250   52.2341   32.2775 C   0  0  0  0  0  0  0  0  0  0  0  0
  131.2781   52.3722   32.9807 N   0  0  0  0  0  0  0  0  0  0  0  0
  132.1245   53.3901   32.7463 C   0  0  0  0  0  0  0  0  0  0  0  0
  129.8003   53.2026   31.2146 C   0  0  0  0  0  0  0  0  0  0  0  0
  133.2784   53.5752   33.5209 N   0  0  0  0  0  0  0  0  0  0  0  0
  130.6896   54.1239   30.9540 C   0  0  0  0  0  0  0  0  0  0  0  0
  131.8388   54.1326   31.7012 N   0  0  0  0  0  0  0  0  0  0  0  0
  1  2  1  0
  2  3  1  0
  3  4  2  0
  2  5  2  0
  4  6  1  0
  5  7  1  0
  4  8  1  0
  7  8  2  0
M  END
>  <ID>  (1) 
conformer_0

$$$$
