
     RDKit          3D

 10 11  0  0  0  0  0  0  0  0999 V2000
  131.0627   52.0896   33.1634 C   0  0  0  0  0  0  0  0  0  0  0  0
  131.7139   53.1139   32.7701 C   0  0  0  0  0  0  0  0  0  0  0  0
  132.8530   53.6489   33.2801 C   0  0  0  0  0  0  0  0  0  0  0  0
  133.5444   54.6068   32.6259 C   0  0  0  0  0  0  0  0  0  0  0  0
  133.0700   55.1730   31.4708 C   0  0  0  0  0  0  0  0  0  0  0  0
  129.8475   51.5511   32.4768 C   0  0  0  0  0  0  0  0  0  0  0  0
  129.4826   52.1987   31.3057 C   0  0  0  0  0  0  0  0  0  0  0  0
  131.2426   53.6451   31.4863 C   0  0  0  0  0  0  0  0  0  0  0  0
  131.9773   54.6297   30.8517 C   0  0  0  0  0  0  0  0  0  0  0  0
  130.0937   53.2026   30.8510 C   0  0  0  0  0  0  0  0  0  0  0  0
  1  2  1  0
  2  3  1  0
  3  4  2  0
  4  5  1  0
  1  6  2  0
  6  7  1  0
  2  8  2  0
  5  9  2  0
  8  9  1  0
  7 10  2  0
  8 10  1  0
M  END
>  <ID>  (1) 
conformer_0

$$$$
