
     RDKit          3D

 10 10  0  0  0  0  0  0  0  0999 V2000
  129.0724   51.2149   32.5229 C   0  0  0  0  0  0  0  0  0  0  0  0
  130.1250   52.2341   32.2775 C   0  0  0  0  0  0  0  0  0  0  0  0
  131.2781   52.3722   32.9807 N   0  0  0  0  0  0  0  0  0  0  0  0
  132.1245   53.3901   32.7463 C   0  0  0  0  0  0  0  0  0  0  0  0
  129.8003   53.2026   31.2146 C   0  0  0  0  0  0  0  0  0  0  0  0
  131.8966   54.2593   31.6933 C   0  0  0  0  0  0  0  0  0  0  0  0
  132.8867   55.2559   31.3829 C   0  0  0  0  0  0  0  0  0  0  0  0
  130.8139   54.1760   30.9917 N   0  0  0  0  0  0  0  0  0  0  0  0
  132.6896   56.2110   30.4583 O   0  0  0  0  0  0  0  0  0  0  0  0
  134.0332   55.3511   31.9935 O   0  0  0  0  0  0  0  0  0  0  0  0
  1  2  1  0
  2  3  1  0
  3  4  2  0
  2  5  2  0
  4  6  1  0
  6  7  1  0
  5  8  1  0
  6  8  2  0
  7  9  1  0
  7 10  2  0
M  END
>  <ID>  (1) 
conformer_0

$$$$
