
     RDKit          3D

  9  9  0  0  0  0  0  0  0  0999 V2000
  131.0627   52.0896   33.1634 C   0  0  0  0  0  0  0  0  0  0  0  0
  129.9517   51.8414   32.4132 C   0  0  0  0  0  0  0  0  0  0  0  0
  131.5683   53.2539   32.7885 C   0  0  0  0  0  0  0  0  0  0  0  0
  132.7814   53.8468   33.3721 O   0  0  0  0  0  0  0  0  0  0  0  0
  131.1546   53.9162   31.5584 C   0  0  0  0  0  0  0  0  0  0  0  0
  130.0800   53.4406   30.8769 C   0  0  0  0  0  0  0  0  0  0  0  0
  133.5719   54.6967   32.8995 C   0  0  0  0  0  0  0  0  0  0  0  0
  129.1267   50.6067   32.9302 C   0  0  0  0  0  0  0  0  0  0  0  0
  129.4572   52.3874   31.3310 C   0  0  0  0  0  0  0  0  0  0  0  0
  1  2  1  0
  1  3  2  0
  3  4  1  0
  3  5  1  0
  5  6  2  0
  4  7  1  0
  2  8  1  0
  2  9  2  0
  6  9  1  0
M  END
>  <ID>  (1) 
conformer_0

$$$$
