
     RDKit          3D

 13 12  0  0  0  0  0  0  0  0999 V2000
   50.7380   11.7385   82.1916 C   0  0  0  0  0  0  0  0  0  0  0  0
   49.9647   10.6021   81.9074 C   0  0  0  0  0  0  0  0  0  0  0  0
   53.1947   16.9643   82.9839 C   0  0  0  0  0  0  0  0  0  0  0  0
   51.9393   11.7166   81.2444 C   0  0  0  0  0  0  0  0  0  0  0  0
   55.3526   11.2378   81.8725 O   0  0  0  0  0  0  0  0  0  0  0  0
   52.1211   15.8284   83.5799 O   0  0  0  0  0  0  0  0  0  0  0  0
   54.5336   15.1792   82.5884 C   0  0  0  0  0  0  0  0  0  0  0  0
   55.3000   14.5041   83.2270 O   0  0  0  0  0  0  0  0  0  0  0  0
   54.4250   17.5474   82.4855 C   0  0  0  0  0  0  0  0  0  0  0  0
   53.0602   12.0300   80.7328 C   0  0  0  0  0  0  0  0  0  0  0  0
   53.9824   15.4608   82.1229 N   0  0  0  0  0  0  0  0  0  0  0  0
   55.1183   12.5954   81.7123 C   0  0  0  0  0  0  0  0  0  0  0  0
   54.8309   13.1195   81.0389 C   0  0  0  0  0  0  0  0  0  0  0  0
  2  1  1  0
  4  1  1  0
  6  3  1  0
  8  7  1  0
  9  3  1  0
 10  4  1  0
 11  3  1  0
 11  7  1  0
 12  5  1  0
 13  7  1  0
 13 10  1  0
 13 12  1  0
M  END
>  <ID>  (1) 
conformer_0

$$$$
