
     RDKit          3D

 17 16  0  0  0  0  0  0  0  0999 V2000
   50.1964   10.1231   81.6551 C   0  0  0  0  0  0  0  0  0  0  0  0
   49.7677   11.1282   82.4024 C   0  0  0  0  0  0  0  0  0  0  0  0
   53.7022   17.9238   83.2008 C   0  0  1  0  0  0  0  0  0  0  0  0
   51.4685   10.8418   80.8139 C   0  0  0  0  0  0  0  0  0  0  0  0
   52.8258   16.4357   83.0500 C   0  0  1  0  0  0  0  0  0  0  0  0
   54.3865   17.8539   82.2382 C   0  0  0  0  0  0  0  0  0  0  0  0
   52.1549   11.4873   81.4049 C   0  0  0  0  0  0  0  0  0  0  0  0
   55.2468   10.9175   81.3367 O   0  0  0  0  0  0  0  0  0  0  0  0
   52.5157   17.9813   83.5840 O   0  0  0  0  0  0  0  0  0  0  0  0
   54.3336   15.3915   81.8281 N   0  0  0  0  0  0  0  0  0  0  0  0
   55.1258   14.3010   83.0889 O   0  0  0  0  0  0  0  0  0  0  0  0
   54.2502   15.3875   82.7701 C   0  0  2  0  0  0  0  0  0  0  0  0
   55.6047   13.3138   80.9323 C   0  0  0  0  0  0  0  0  0  0  0  0
   52.3566   15.5054   83.5250 O   0  0  0  0  0  0  0  0  0  0  0  0
   54.7482   11.7667   81.3176 C   0  0  0  0  0  0  0  0  0  0  0  0
   53.4787   12.1836   80.7492 C   0  0  0  0  0  0  0  0  0  0  0  0
   55.5230   13.7094   81.9613 C   0  0  0  0  0  0  0  0  0  0  0  0
  2  1  1  0
  4  1  1  0
  5  3  1  0
  3  6  1  6
  7  4  2  3
  9  3  1  0
 12  5  1  0
 12 10  1  6
 12 11  1  0
  5 14  1  1
 15  8  2  0
 15 13  1  0
 16  7  1  0
 16 15  1  0
 17 11  1  0
 17 13  1  0
M  END
>  <ID>  (1) 
conformer_0

$$$$
