
     RDKit          3D

 13 14  0  0  0  0  0  0  0  0999 V2000
   50.5217   10.0964   81.2626 C   0  0  0  0  0  0  0  0  0  0  0  0
   51.7791   11.4372   81.3278 C   0  0  0  0  0  0  0  0  0  0  0  0
   53.8576   15.7016   82.7849 C   0  0  0  0  0  0  0  0  0  0  0  0
   54.5379   17.4846   82.2517 C   0  0  0  0  0  0  0  0  0  0  0  0
   52.7047   11.5333   80.2531 C   0  0  0  0  0  0  0  0  0  0  0  0
   55.2089   13.0239   81.7238 C   0  0  0  0  0  0  0  0  0  0  0  0
   52.4350   16.0427   83.7798 O   0  0  0  0  0  0  0  0  0  0  0  0
   55.0247   14.0537   83.1852 O   0  0  0  0  0  0  0  0  0  0  0  0
   54.3841   15.0113   81.7134 N   0  0  0  0  0  0  0  0  0  0  0  0
   55.5471   11.3160   81.7867 O   0  0  0  0  0  0  0  0  0  0  0  0
   50.4932   11.4505   82.1030 C   0  0  0  0  0  0  0  0  0  0  0  0
   53.1665   17.2637   83.2873 C   0  0  0  0  0  0  0  0  0  0  0  0
   54.0654   12.2796   80.6732 C   0  0  0  0  0  0  0  0  0  0  0  0
  2  1  1  0
  5  2  1  0
  7  3  1  0
  8  6  1  0
  9  3  1  0
  9  8  1  0
 10  6  1  0
 11  1  1  0
 11  2  1  0
 12  3  1  0
 12  4  1  0
 12  7  1  0
 13  5  1  0
 13  6  1  0
M  END
>  <ID>  (1) 
conformer_0

$$$$
