
     RDKit          3D

 16 16  0  0  0  0  0  0  0  0999 V2000
   49.7134   11.1366   82.4072 C   0  0  0  0  0  0  0  0  0  0  0  0
   50.9167   10.5999   81.1005 C   0  0  0  0  0  0  0  0  0  0  0  0
   53.5230   17.6770   83.2009 C   0  0  0  0  0  0  0  0  0  0  0  0
   52.6459   11.4470   80.6011 C   0  0  0  0  0  0  0  0  0  0  0  0
   54.5028   17.5131   82.4938 C   0  0  0  0  0  0  0  0  0  0  0  0
   52.1219   15.1724   83.3189 O   0  0  0  0  0  0  0  0  0  0  0  0
   53.1124   15.9675   83.0072 C   0  0  0  0  0  0  0  0  0  0  0  0
   55.1956   14.2172   83.1449 O   0  0  0  0  0  0  0  0  0  0  0  0
   53.4201   11.9724   81.0808 C   0  0  0  0  0  0  0  0  0  0  0  0
   54.4156   15.2976   81.7887 N   0  0  0  0  0  0  0  0  0  0  0  0
   55.5264   10.7675   81.3008 O   0  0  0  0  0  0  0  0  0  0  0  0
   55.1003   14.6914   82.2970 C   0  0  2  0  0  0  0  0  0  0  0  0
   52.4283   17.3478   83.2557 O   0  0  0  0  0  0  0  0  0  0  0  0
   55.3131   12.1003   81.4338 C   0  0  1  0  0  0  0  0  0  0  0  0
   55.1485   12.8590   81.3820 C   0  0  0  0  0  0  0  0  0  0  0  0
   51.1561   11.8696   81.9020 C   0  0  0  0  0  0  0  0  0  0  0  0
  2  1  1  0
  4  2  1  0
  5  3  2  3
  7  6  2  0
  9  4  1  0
 10  7  1  0
 12  8  1  1
 12 10  1  0
 13  3  1  0
 13  7  1  0
 14  9  1  0
 14 11  1  6
 15 12  1  0
 15 14  1  0
 16  1  1  0
 16  2  1  0
M  END
>  <ID>  (1) 
conformer_0

$$$$
