
     RDKit          3D

 14 13  0  0  0  0  0  0  0  0999 V2000
   50.6486   11.1362   81.8425 C   0  0  0  0  0  0  0  0  0  0  0  0
   50.2977   10.0490   81.3218 C   0  0  0  0  0  0  0  0  0  0  0  0
   53.6889   17.4989   83.2116 C   0  0  0  0  0  0  0  0  0  0  0  0
   52.0460   11.4835   81.2148 C   0  0  0  0  0  0  0  0  0  0  0  0
   55.4717   11.1902   81.3858 O   0  0  0  0  0  0  0  0  0  0  0  0
   52.2127   15.5423   83.5004 O   0  0  0  0  0  0  0  0  0  0  0  0
   53.0449   16.1543   83.3147 C   0  0  0  0  0  0  0  0  0  0  0  0
   53.1519   12.0910   80.7486 C   0  0  0  0  0  0  0  0  0  0  0  0
   54.4256   15.4516   81.9621 N   0  0  0  0  0  0  0  0  0  0  0  0
   54.8264   14.9228   82.4257 C   0  0  0  0  0  0  0  0  0  0  0  0
   54.0757   17.8522   82.7962 C   0  0  0  0  0  0  0  0  0  0  0  0
   53.0073   18.4721   83.5386 O   0  0  0  0  0  0  0  0  0  0  0  0
   54.8944   13.1854   80.9435 C   0  0  1  0  0  0  0  0  0  0  0  0
   55.2060   12.4444   81.3789 C   0  0  0  0  0  0  0  0  0  0  0  0
  2  1  1  0
  4  1  1  0
  7  3  1  0
  7  6  2  0
  8  4  1  0
  9  7  1  0
 10  9  1  0
 11  3  2  3
 12  3  1  0
 13  8  1  1
 13 10  1  0
 14  5  2  0
 14 13  1  0
M  END
>  <ID>  (1) 
conformer_0

$$$$
