
     RDKit          3D

 17 16  0  0  0  0  0  0  0  0999 V2000
   49.8434   11.1618   82.3789 C   0  0  0  0  0  0  0  0  0  0  0  0
   51.8856   11.7664   81.7490 C   0  0  0  0  0  0  0  0  0  0  0  0
   54.1507   17.5908   82.5045 C   0  0  0  0  0  0  0  0  0  0  0  0
   52.8966   17.1064   83.3517 C   0  0  0  0  0  0  0  0  0  0  0  0
   53.2664   11.7301   80.4377 C   0  0  0  0  0  0  0  0  0  0  0  0
   53.7478   15.7048   82.9783 C   0  0  0  0  0  0  0  0  0  0  0  0
   52.3934   15.3006   83.6107 O   0  0  0  0  0  0  0  0  0  0  0  0
   54.8662   14.2024   83.3271 O   0  0  0  0  0  0  0  0  0  0  0  0
   54.0570   12.6486   80.9646 C   0  0  0  0  0  0  0  0  0  0  0  0
   55.2770   11.8091   81.2598 C   0  0  0  0  0  0  0  0  0  0  0  0
   54.5822   15.1875   81.8390 N   0  0  0  0  0  0  0  0  0  0  0  0
   55.3286   10.7640   81.2501 O   0  0  0  0  0  0  0  0  0  0  0  0
   56.2315   13.2237   81.0181 C   0  0  0  0  0  0  0  0  0  0  0  0
   51.9272   17.2302   83.6425 O   0  0  0  0  0  0  0  0  0  0  0  0
   55.3175   14.1982   82.2255 C   0  0  0  0  0  0  0  0  0  0  0  0
   51.4005   10.9111   80.9980 C   0  0  0  0  0  0  0  0  0  0  0  0
   49.7930    9.9202   81.3958 C   0  0  0  0  0  0  0  0  0  0  0  0
  4  3  1  0
  5  2  1  0
  6  4  1  0
  7  6  1  0
  9  5  1  0
 10  9  1  0
 11  6  1  0
 12 10  2  0
 13 10  1  0
 14  4  2  0
 15  8  2  0
 15 11  1  0
 15 13  1  0
 16  2  1  0
 17  1  1  0
 17 16  1  0
M  END
>  <ID>  (1) 
conformer_0

$$$$
