
     RDKit          3D

 14 13  0  0  0  0  0  0  0  0999 V2000
   50.6344   10.8252   81.8296 C   0  0  0  0  0  0  0  0  0  0  0  0
   49.4944   10.8282   82.4092 C   0  0  0  0  0  0  0  0  0  0  0  0
   53.2559   16.1111   83.1054 C   0  0  0  0  0  0  0  0  0  0  0  0
   51.8032   11.3457   81.6387 C   0  0  0  0  0  0  0  0  0  0  0  0
   54.9034   12.3729   81.2662 C   0  0  2  0  0  0  0  0  0  0  0  0
   55.0867   11.2979   81.6643 O   0  0  0  0  0  0  0  0  0  0  0  0
   52.1499   15.5704   83.5135 O   0  0  0  0  0  0  0  0  0  0  0  0
   55.1267   13.9251   83.1367 O   0  0  0  0  0  0  0  0  0  0  0  0
   54.3162   15.2381   81.8168 N   0  0  0  0  0  0  0  0  0  0  0  0
   52.9597   11.7749   80.5123 C   0  0  0  0  0  0  0  0  0  0  0  0
   54.3106   17.7407   82.3262 C   0  0  0  0  0  0  0  0  0  0  0  0
   53.6281   17.5789   83.1768 C   0  0  0  0  0  0  0  0  0  0  0  0
   54.8403   12.9704   80.3650 C   0  0  0  0  0  0  0  0  0  0  0  0
   55.0686   14.6405   82.2426 C   0  0  2  0  0  0  0  0  0  0  0  0
  2  1  2  3
  4  1  1  0
  6  5  1  0
  7  3  2  0
  9  3  1  0
 10  4  2  3
 10  5  1  0
 12  3  1  0
 12 11  1  0
  5 13  1  6
 14  5  1  0
 14  8  1  1
 14  9  1  0
M  END
>  <ID>  (1) 
conformer_0

$$$$
