
     RDKit          3D

 15 14  0  0  0  0  0  0  0  0999 V2000
   50.3421   10.2118   81.3753 C   0  0  0  0  0  0  0  0  0  0  0  0
   51.4484   11.3181   81.4458 C   0  0  0  0  0  0  0  0  0  0  0  0
   53.5661   15.9482   82.7705 C   0  0  0  0  0  0  0  0  0  0  0  0
   54.2619   17.6918   82.4850 C   0  0  0  0  0  0  0  0  0  0  0  0
   55.1683   14.2789   82.1647 C   0  0  0  0  0  0  0  0  0  0  0  0
   52.6160   11.5986   80.9986 C   0  0  0  0  0  0  0  0  0  0  0  0
   55.3964   11.4744   82.0255 O   0  0  0  0  0  0  0  0  0  0  0  0
   55.2710   14.0689   83.3213 O   0  0  0  0  0  0  0  0  0  0  0  0
   54.3939   15.1467   81.7706 N   0  0  0  0  0  0  0  0  0  0  0  0
   52.0870   17.4154   83.4442 O   0  0  0  0  0  0  0  0  0  0  0  0
   53.2797   17.7625   83.2874 C   0  0  0  0  0  0  0  0  0  0  0  0
   53.9900   12.4072   80.9019 C   0  0  0  0  0  0  0  0  0  0  0  0
   52.1211   15.2402   83.0982 O   0  0  0  0  0  0  0  0  0  0  0  0
   55.1951   12.2639   81.4170 C   0  0  0  0  0  0  0  0  0  0  0  0
   49.4899   10.8996   82.3534 C   0  0  0  0  0  0  0  0  0  0  0  0
  2  1  1  0
  4  3  1  0
  6  2  2  0
  8  5  1  0
  9  3  1  0
  9  5  1  0
 11  4  1  0
 11 10  2  0
 12  6  2  0
 13  3  2  0
 14  5  1  0
 14  7  1  0
 14 12  1  0
 15  1  1  0
M  END
>  <ID>  (1) 
conformer_0

$$$$
