
     RDKit          3D

 16 16  0  0  0  0  0  0  0  0999 V2000
   50.2764   10.0334   81.0345 C   0  0  0  0  0  0  0  0  0  0  0  0
   53.9399   17.8599   83.0078 C   0  0  0  0  0  0  0  0  0  0  0  0
   51.7807   11.0105   80.4873 C   0  0  0  0  0  0  0  0  0  0  0  0
   52.7732   16.8273   83.4288 C   0  0  0  0  0  0  0  0  0  0  0  0
   52.2111   11.7563   81.4974 C   0  0  0  0  0  0  0  0  0  0  0  0
   52.0807   15.3629   83.8193 O   0  0  0  0  0  0  0  0  0  0  0  0
   55.6107   13.2953   80.8593 C   0  0  0  0  0  0  0  0  0  0  0  0
   55.3587   10.9624   81.3949 O   0  0  0  0  0  0  0  0  0  0  0  0
   54.3194   15.4505   82.0787 N   0  0  0  0  0  0  0  0  0  0  0  0
   53.8615   15.4928   83.1069 C   0  0  0  0  0  0  0  0  0  0  0  0
   55.2161   13.5805   83.0410 O   0  0  0  0  0  0  0  0  0  0  0  0
   55.1743   14.0261   82.1607 C   0  0  0  0  0  0  0  0  0  0  0  0
   50.4325   11.2545   82.0428 C   0  0  0  0  0  0  0  0  0  0  0  0
   52.1124   17.1322   83.5062 O   0  0  0  0  0  0  0  0  0  0  0  0
   55.0723   11.8676   81.3616 C   0  0  0  0  0  0  0  0  0  0  0  0
   53.6566   12.1422   80.7871 C   0  0  0  0  0  0  0  0  0  0  0  0
  3  1  1  0
  4  2  1  0
  5  3  1  0
  6  4  1  0
 10  4  1  0
 10  9  1  0
 12  7  1  0
 12  9  1  0
 12 11  2  0
 13  1  1  0
 13  5  1  0
 14  4  1  0
 15  7  1  0
 15  8  2  0
 16  5  1  0
 16 15  1  0
M  END
>  <ID>  (1) 
conformer_0

$$$$
