
     RDKit          3D

 19 19  0  0  0  0  0  0  0  0999 V2000
   49.8568    9.8215   81.2594 C   0  0  0  0  0  0  0  0  0  0  0  0
   51.6412   11.7677   81.9821 C   0  0  0  0  0  0  0  0  0  0  0  0
   53.4524   17.9216   83.2867 C   0  0  0  0  0  0  0  0  0  0  0  0
   54.4485   16.0215   82.4392 C   0  0  0  0  0  0  0  0  0  0  0  0
   51.3751   10.9324   80.9969 C   0  0  0  0  0  0  0  0  0  0  0  0
   52.0661   15.0258   83.3828 O   0  0  0  0  0  0  0  0  0  0  0  0
   55.1685   13.7966   83.0502 O   0  0  0  0  0  0  0  0  0  0  0  0
   52.9926   12.1852   80.6832 C   0  0  0  0  0  0  0  0  0  0  0  0
   55.0855   13.9240   82.0596 C   0  0  0  0  0  0  0  0  0  0  0  0
   54.2500   15.3307   81.9363 N   0  0  0  0  0  0  0  0  0  0  0  0
   54.1499   11.7097   81.0503 C   0  0  0  0  0  0  0  0  0  0  0  0
   53.0545   18.6077   83.8220 O   0  0  0  0  0  0  0  0  0  0  0  0
   54.4398   17.4045   82.4674 C   0  0  0  0  0  0  0  0  0  0  0  0
   55.6187   11.2758   81.6839 O   0  0  0  0  0  0  0  0  0  0  0  0
   55.1143   11.7435   81.3870 C   0  0  0  0  0  0  0  0  0  0  0  0
   52.5811   16.0446   83.3603 C   0  0  0  0  0  0  0  0  0  0  0  0
   52.0711   16.8852   83.3819 O   0  0  0  0  0  0  0  0  0  0  0  0
   55.9501   13.5490   80.8612 C   0  0  0  0  0  0  0  0  0  0  0  0
   49.8448   11.1161   82.3472 C   0  0  0  0  0  0  0  0  0  0  0  0
  5  1  1  0
  5  2  1  0
  8  2  1  0
  9  7  2  0
 10  4  1  0
 10  9  1  0
 11  8  1  0
 12  3  1  0
 13  3  1  0
 13  4  1  0
 15 11  1  0
 15 14  2  0
 16  6  2  0
 17  3  1  0
 17 16  1  0
 18  9  1  0
 18 15  1  0
 19  1  1  0
 19  2  1  0
M  END
>  <ID>  (1) 
conformer_0

$$$$
