
     RDKit          3D

 15 15  0  0  0  0  0  0  0  0999 V2000
   50.1424    9.9353   81.4603 C   0  0  0  0  0  0  0  0  0  0  0  0
   50.0873   11.2048   82.3028 C   0  0  0  0  0  0  0  0  0  0  0  0
   53.4249   17.6398   83.2655 C   0  0  0  0  0  0  0  0  0  0  0  0
   54.0989   17.8123   82.5321 C   0  0  0  0  0  0  0  0  0  0  0  0
   53.4954   16.0244   82.8903 C   0  0  0  0  0  0  0  0  0  0  0  0
   51.4502   10.8657   80.8997 C   0  0  0  0  0  0  0  0  0  0  0  0
   55.2082   11.2292   81.3950 O   0  0  0  0  0  0  0  0  0  0  0  0
   52.1459   16.0947   83.6189 O   0  0  0  0  0  0  0  0  0  0  0  0
   54.5463   15.3110   81.9740 N   0  0  0  0  0  0  0  0  0  0  0  0
   52.1305   11.9800   81.5822 C   0  0  0  0  0  0  0  0  0  0  0  0
   54.9176   14.3363   82.2227 C   0  0  0  0  0  0  0  0  0  0  0  0
   53.2573   12.2550   80.7050 C   0  0  0  0  0  0  0  0  0  0  0  0
   53.6294   14.4715   83.3141 O   0  0  0  0  0  0  0  0  0  0  0  0
   54.8716   12.3630   81.2757 C   0  0  0  0  0  0  0  0  0  0  0  0
   55.2826   13.4479   80.9267 C   0  0  0  0  0  0  0  0  0  0  0  0
  2  1  1  0
  4  3  1  0
  5  3  1  0
  6  1  1  0
  8  5  1  0
  9  5  1  0
 10  6  1  0
 11  9  1  0
 12 10  1  0
 13  5  1  0
 13 11  1  0
 14  7  2  0
 14 12  1  0
 15 11  1  0
 15 14  1  0
M  END
>  <ID>  (1) 
conformer_0

$$$$
