
     RDKit          3D

 13 12  0  0  0  0  0  0  0  0999 V2000
   49.8663   10.0733   81.5819 C   0  0  0  0  0  0  0  0  0  0  0  0
   50.3459   11.2063   82.0881 C   0  0  0  0  0  0  0  0  0  0  0  0
   52.8819   16.1843   83.3554 C   0  0  0  0  0  0  0  0  0  0  0  0
   51.6418   11.1431   80.9628 C   0  0  0  0  0  0  0  0  0  0  0  0
   54.5074   15.1744   82.5562 C   0  0  0  0  0  0  0  0  0  0  0  0
   52.2189   14.9362   83.2299 O   0  0  0  0  0  0  0  0  0  0  0  0
   54.5845   15.2096   81.8012 N   0  0  0  0  0  0  0  0  0  0  0  0
   54.4117   17.6911   82.4052 C   0  0  0  0  0  0  0  0  0  0  0  0
   53.5709   17.6733   83.4195 C   0  0  0  0  0  0  0  0  0  0  0  0
   55.2012   11.3223   81.8667 O   0  0  0  0  0  0  0  0  0  0  0  0
   52.7342   11.8373   80.6875 C   0  0  0  0  0  0  0  0  0  0  0  0
   55.1789   12.5994   81.5820 C   0  0  0  0  0  0  0  0  0  0  0  0
   54.4636   12.7453   80.7311 C   0  0  0  0  0  0  0  0  0  0  0  0
  2  1  1  0
  4  2  1  0
  5  3  1  0
  6  3  1  0
  7  5  1  0
  9  3  1  0
  9  8  1  0
 11  4  2  0
 12  5  1  0
 12 10  1  0
 13 11  2  0
 13 12  1  0
M  END
>  <ID>  (1) 
conformer_0

$$$$
