
     RDKit          3D

 16 17  0  0  0  0  0  0  0  0999 V2000
   53.7425   17.8256   83.0357 C   0  0  0  0  0  0  0  0  0  0  0  0
   49.6193   11.1264   82.4501 C   0  0  0  0  0  0  0  0  0  0  0  0
   50.5556   10.4900   81.1909 C   0  0  0  0  0  0  0  0  0  0  0  0
   52.3145   11.4254   80.7647 C   0  0  0  0  0  0  0  0  0  0  0  0
   52.0564   15.9541   83.8381 O   0  0  0  0  0  0  0  0  0  0  0  0
   55.5756   10.7990   81.3068 O   0  0  0  0  0  0  0  0  0  0  0  0
   52.8218   16.5403   83.4093 C   0  0  0  0  0  0  0  0  0  0  0  0
   55.3346   13.5618   82.9902 O   0  0  0  0  0  0  0  0  0  0  0  0
   53.7233   15.4195   82.9486 C   0  0  0  0  0  0  0  0  0  0  0  0
   54.0655   15.0954   81.8019 N   0  0  0  0  0  0  0  0  0  0  0  0
   53.4977   12.1101   80.8079 C   0  0  0  0  0  0  0  0  0  0  0  0
   53.4556   18.4055   84.2512 O   0  0  0  0  0  0  0  0  0  0  0  0
   55.2887   11.4104   81.0492 C   0  0  0  0  0  0  0  0  0  0  0  0
   55.2223   13.0025   80.6782 C   0  0  0  0  0  0  0  0  0  0  0  0
   51.2657   11.8234   81.9337 C   0  0  0  0  0  0  0  0  0  0  0  0
   54.8599   13.7039   81.8231 C   0  0  0  0  0  0  0  0  0  0  0  0
  3  2  1  0
  7  1  1  0
  7  5  2  0
  9  7  1  0
 10  9  1  0
 11  4  1  0
 12  1  1  0
 13  6  2  0
 13 11  1  0
 14 11  1  0
 14 13  1  0
 15  2  1  0
 15  3  1  0
 15  4  1  0
 16  8  2  0
 16 10  1  0
 16 14  1  0
M  END
>  <ID>  (1) 
conformer_0

$$$$
