
     RDKit          3D

 14 13  0  0  0  0  0  0  0  0999 V2000
   49.8741   11.0895   82.2906 C   0  0  0  0  0  0  0  0  0  0  0  0
   50.5287   10.4877   81.3027 C   0  0  0  0  0  0  0  0  0  0  0  0
   53.5126   17.6244   82.9163 C   0  0  0  0  0  0  0  0  0  0  0  0
   51.9202   11.4278   81.2939 C   0  0  0  0  0  0  0  0  0  0  0  0
   52.0187   15.9873   83.3576 O   0  0  0  0  0  0  0  0  0  0  0  0
   55.3573   13.9863   83.3101 O   0  0  0  0  0  0  0  0  0  0  0  0
   53.0362   15.9635   83.1637 C   0  0  1  0  0  0  0  0  0  0  0  0
   55.6646   10.9059   81.2736 O   0  0  0  0  0  0  0  0  0  0  0  0
   54.2860   15.4822   82.1363 N   0  0  0  0  0  0  0  0  0  0  0  0
   55.1718   11.9967   81.3602 C   0  0  0  0  0  0  0  0  0  0  0  0
   54.3352   17.9072   82.7569 C   0  0  0  0  0  0  0  0  0  0  0  0
   53.0036   11.7368   80.8526 C   0  0  0  0  0  0  0  0  0  0  0  0
   54.6470   12.8220   80.9950 C   0  0  1  0  0  0  0  0  0  0  0  0
   54.9001   14.4741   82.3933 C   0  0  0  0  0  0  0  0  0  0  0  0
  2  1  1  0
  4  2  1  0
  7  3  1  0
  7  5  1  6
  9  7  1  0
 10  8  2  0
 11  3  2  3
 12  4  2  3
 13 10  1  1
 13 12  1  0
 14  6  2  0
 14  9  1  0
 14 13  1  0
M  END
>  <ID>  (1) 
conformer_0

$$$$
