
     RDKit          3D

 15 15  0  0  0  0  0  0  0  0999 V2000
   51.7086   11.1666   81.0652 C   0  0  0  0  0  0  0  0  0  0  0  0
   50.0765   10.1352   81.3973 C   0  0  0  0  0  0  0  0  0  0  0  0
   53.3075   17.7898   83.3511 C   0  0  0  0  0  0  0  0  0  0  0  0
   54.4606   17.5206   82.4587 C   0  0  0  0  0  0  0  0  0  0  0  0
   52.7139   11.8575   81.1077 C   0  0  0  0  0  0  0  0  0  0  0  0
   52.2318   15.2633   83.1054 O   0  0  0  0  0  0  0  0  0  0  0  0
   53.2349   16.1265   82.8823 C   0  0  0  0  0  0  0  0  0  0  0  0
   55.5538   11.3584   81.7071 O   0  0  0  0  0  0  0  0  0  0  0  0
   54.6439   14.8508   81.6792 N   0  0  0  0  0  0  0  0  0  0  0  0
   55.0227   12.2568   81.4698 C   0  0  0  0  0  0  0  0  0  0  0  0
   53.9769   12.5170   80.7421 C   0  0  0  0  0  0  0  0  0  0  0  0
   55.2919   13.3410   83.0378 O   0  0  0  0  0  0  0  0  0  0  0  0
   55.0276   14.6825   82.0996 C   0  0  0  0  0  0  0  0  0  0  0  0
   50.2732   11.3186   82.1762 C   0  0  0  0  0  0  0  0  0  0  0  0
   52.0587   16.9588   83.6487 O   0  0  0  0  0  0  0  0  0  0  0  0
  4  3  1  0
  5  1  2  0
  7  3  1  0
  7  6  1  0
 10  8  2  0
 11  5  2  0
 11 10  1  0
 12 10  1  0
 13  7  1  0
 13  9  1  0
 13 12  1  0
 14  1  1  0
 14  2  1  0
 15  3  1  0
 15  7  1  0
M  END
>  <ID>  (1) 
conformer_0

$$$$
