
     RDKit          3D

 14 13  0  0  0  0  0  0  0  0999 V2000
   50.3561   10.7867   82.0446 C   0  0  0  0  0  0  0  0  0  0  0  0
   50.2937    9.9727   81.2685 C   0  0  0  0  0  0  0  0  0  0  0  0
   53.3776   17.6786   83.2161 C   0  0  0  0  0  0  0  0  0  0  0  0
   51.7696   11.3615   81.1600 C   0  0  0  0  0  0  0  0  0  0  0  0
   53.6344   15.8146   83.0060 C   0  0  0  0  0  0  0  0  0  0  0  0
   54.2963   17.5103   82.5261 C   0  0  0  0  0  0  0  0  0  0  0  0
   55.1927   11.2050   81.6479 O   0  0  0  0  0  0  0  0  0  0  0  0
   52.3713   15.6724   83.6449 O   0  0  0  0  0  0  0  0  0  0  0  0
   53.3912   18.5923   84.3232 O   0  0  0  0  0  0  0  0  0  0  0  0
   52.7976   11.7163   80.5832 C   0  0  0  0  0  0  0  0  0  0  0  0
   54.4996   15.2564   81.8348 N   0  0  0  0  0  0  0  0  0  0  0  0
   54.8723   12.1564   81.2885 C   0  0  0  0  0  0  0  0  0  0  0  0
   55.0173   13.0342   80.8130 C   0  0  0  0  0  0  0  0  0  0  0  0
   55.2634   14.3583   82.3275 C   0  0  0  0  0  0  0  0  0  0  0  0
  2  1  1  0
  4  1  1  0
  6  3  1  0
  6  5  1  0
  8  5  2  0
  9  3  1  0
 10  4  1  0
 11  5  1  0
 12  7  2  0
 12 10  1  0
 13 12  1  0
 14 11  1  0
 14 13  1  0
M  END
>  <ID>  (1) 
conformer_0

$$$$
