
     RDKit          3D

 15 14  0  0  0  0  0  0  0  0999 V2000
   50.1528   10.5145   81.8683 C   0  0  0  0  0  0  0  0  0  0  0  0
   50.7227   10.2805   81.0214 C   0  0  0  0  0  0  0  0  0  0  0  0
   53.5506   17.7154   82.9995 C   0  0  0  0  0  0  0  0  0  0  0  0
   52.0478   11.3575   81.1598 C   0  0  0  0  0  0  0  0  0  0  0  0
   53.3486   16.0570   82.9750 C   0  0  0  0  0  0  0  0  0  0  0  0
   53.2172   11.9746   80.7668 C   0  0  0  0  0  0  0  0  0  0  0  0
   52.2846   15.3021   83.4365 O   0  0  0  0  0  0  0  0  0  0  0  0
   55.3523   10.8990   81.3009 O   0  0  0  0  0  0  0  0  0  0  0  0
   54.6476   13.9996   83.1352 O   0  0  0  0  0  0  0  0  0  0  0  0
   54.3247   17.9109   82.4733 C   0  0  0  0  0  0  0  0  0  0  0  0
   54.8073   14.3602   82.4749 C   0  0  0  0  0  0  0  0  0  0  0  0
   54.3035   15.3376   81.9388 N   0  0  0  0  0  0  0  0  0  0  0  0
   52.2328   17.5593   83.3945 O   0  0  0  0  0  0  0  0  0  0  0  0
   55.3099   13.2267   81.1006 C   0  0  0  0  0  0  0  0  0  0  0  0
   55.0028   12.1409   81.5132 C   0  0  1  0  0  0  0  0  0  0  0  0
  2  1  1  0
  4  2  1  0
  5  3  1  0
  6  4  1  0
  7  5  2  0
 10  3  2  3
 11  9  2  0
 12  5  1  0
 12 11  1  0
 13  3  1  0
 14 11  1  0
 15  6  1  0
 15  8  1  6
 15 14  1  0
M  END
>  <ID>  (1) 
conformer_0

$$$$
