
     RDKit          3D

 15 14  0  0  0  0  0  0  0  0999 V2000
   49.7589   10.4009   81.8763 C   0  0  0  0  0  0  0  0  0  0  0  0
   50.8113   10.8061   81.5358 C   0  0  0  0  0  0  0  0  0  0  0  0
   53.4844   15.8961   82.9287 C   0  0  0  0  0  0  0  0  0  0  0  0
   54.3211   17.6576   82.4124 C   0  0  0  0  0  0  0  0  0  0  0  0
   51.9272   11.5615   81.4567 C   0  0  0  0  0  0  0  0  0  0  0  0
   55.2078   12.2221   81.3647 C   0  0  0  0  0  0  0  0  0  0  0  0
   55.0804   13.9644   83.3094 O   0  0  0  0  0  0  0  0  0  0  0  0
   55.5264   11.1248   81.5501 O   0  0  0  0  0  0  0  0  0  0  0  0
   52.2774   15.7156   83.4315 O   0  0  0  0  0  0  0  0  0  0  0  0
   54.5224   15.1094   81.8591 N   0  0  0  0  0  0  0  0  0  0  0  0
   53.0535   11.7228   80.7141 C   0  0  0  0  0  0  0  0  0  0  0  0
   53.2354   17.6187   83.1724 C   0  0  2  0  0  0  0  0  0  0  0  0
   53.3826   18.3918   84.1681 O   0  0  0  0  0  0  0  0  0  0  0  0
   54.3892   12.6372   80.4720 C   0  0  0  0  0  0  0  0  0  0  0  0
   55.0326   14.2933   82.3079 C   0  0  0  0  0  0  0  0  0  0  0  0
  2  1  3  0
  5  2  1  0
  8  6  2  0
  9  3  2  0
 10  3  1  0
 11  5  2  3
 12  3  1  0
 12  4  1  6
 13 12  1  0
 14  6  1  0
 14 11  1  0
 15  6  1  0
 15  7  2  0
 15 10  1  0
M  END
>  <ID>  (1) 
conformer_0

$$$$
