
     RDKit          3D

 15 14  0  0  0  0  0  0  0  0999 V2000
   49.9660   10.1177   81.4654 C   0  0  0  0  0  0  0  0  0  0  0  0
   50.8054   10.7433   81.5075 C   0  0  0  0  0  0  0  0  0  0  0  0
   53.2660   17.7633   83.3723 C   0  0  0  0  0  0  0  0  0  0  0  0
   51.9841   11.5802   81.3868 C   0  0  0  0  0  0  0  0  0  0  0  0
   53.4963   16.0256   83.0214 C   0  0  0  0  0  0  0  0  0  0  0  0
   52.0827   16.0766   83.3720 O   0  0  0  0  0  0  0  0  0  0  0  0
   54.2967   17.7510   82.6392 C   0  0  0  0  0  0  0  0  0  0  0  0
   55.2989   13.9464   83.2870 O   0  0  0  0  0  0  0  0  0  0  0  0
   55.3443   10.9271   81.0775 O   0  0  0  0  0  0  0  0  0  0  0  0
   54.3501   15.4379   82.1231 N   0  0  0  0  0  0  0  0  0  0  0  0
   52.9936   12.0800   80.7994 C   0  0  0  0  0  0  0  0  0  0  0  0
   55.0733   14.1610   82.2626 C   0  0  0  0  0  0  0  0  0  0  0  0
   53.2977   18.5765   84.3596 O   0  0  0  0  0  0  0  0  0  0  0  0
   54.5108   13.1108   80.8549 C   0  0  0  0  0  0  0  0  0  0  0  0
   55.0506   12.0616   81.1299 C   0  0  0  0  0  0  0  0  0  0  0  0
  2  1  3  0
  4  2  1  0
  5  3  1  0
  6  5  2  0
  7  3  1  0
 10  5  1  0
 11  4  1  0
 12  8  2  0
 12 10  1  0
 13  3  1  0
 14 11  1  0
 14 12  1  0
 15  9  1  0
 15 14  1  0
M  END
>  <ID>  (1) 
conformer_0

$$$$
