
     RDKit          3D

 12 11  0  0  0  0  0  0  0  0999 V2000
   49.9912   11.2921   82.3424 C   0  0  0  0  0  0  0  0  0  0  0  0
   50.3504   10.3080   81.4083 C   0  0  0  0  0  0  0  0  0  0  0  0
   51.6244   11.3397   81.2273 C   0  0  0  0  0  0  0  0  0  0  0  0
   53.3019   17.1266   83.1204 C   0  0  0  0  0  0  0  0  0  0  0  0
   54.3640   15.0437   82.6291 C   0  0  0  0  0  0  0  0  0  0  0  0
   52.1839   16.0181   83.5199 O   0  0  0  0  0  0  0  0  0  0  0  0
   55.4005   11.0993   81.6301 O   0  0  0  0  0  0  0  0  0  0  0  0
   54.1070   15.6252   82.0912 N   0  0  0  0  0  0  0  0  0  0  0  0
   52.9304   12.0111   80.9068 C   0  0  0  0  0  0  0  0  0  0  0  0
   55.1374   12.7090   81.7024 C   0  0  0  0  0  0  0  0  0  0  0  0
   55.0120   13.0836   80.8779 C   0  0  0  0  0  0  0  0  0  0  0  0
   54.5116   17.8700   82.4315 C   0  0  0  0  0  0  0  0  0  0  0  0
  2  1  1  0
  3  2  1  0
  6  4  1  0
  8  4  1  0
  8  5  1  0
  9  3  3  0
 10  5  1  0
 10  7  1  0
 11  9  1  0
 11 10  1  0
 12  4  1  0
M  END
>  <ID>  (1) 
conformer_0

$$$$
