
     RDKit          3D

 16 15  0  0  0  0  0  0  0  0999 V2000
   50.0611   10.0268   81.4759 C   0  0  0  0  0  0  0  0  0  0  0  0
   50.2066   11.0496   82.0289 C   0  0  0  0  0  0  0  0  0  0  0  0
   53.4223   15.7779   82.9729 C   0  0  0  0  0  0  0  0  0  0  0  0
   54.6961   12.2754   81.3668 C   0  0  0  0  0  0  0  0  0  0  0  0
   55.2148   11.5172   81.9187 O   0  0  0  0  0  0  0  0  0  0  0  0
   51.7915   11.4701   81.5796 C   0  0  0  0  0  0  0  0  0  0  0  0
   54.4226   17.3976   82.4122 C   0  0  0  0  0  0  0  0  0  0  0  0
   52.1204   17.7801   83.5034 O   0  0  0  0  0  0  0  0  0  0  0  0
   54.8979   14.1376   83.2816 O   0  0  0  0  0  0  0  0  0  0  0  0
   54.4402   14.7751   81.7817 N   0  0  0  0  0  0  0  0  0  0  0  0
   53.2947   17.5692   83.3140 C   0  0  0  0  0  0  0  0  0  0  0  0
   53.4150   18.7408   83.9837 O   0  0  0  0  0  0  0  0  0  0  0  0
   52.4087   11.4098   80.7575 C   0  0  0  0  0  0  0  0  0  0  0  0
   55.3218   14.2094   82.2366 C   0  0  1  0  0  0  0  0  0  0  0  0
   54.1855   12.3582   80.2494 C   0  0  0  0  0  0  0  0  0  0  0  0
   52.2923   15.8124   83.5164 O   0  0  0  0  0  0  0  0  0  0  0  0
  2  1  1  0
  5  4  2  0
  6  2  1  0
 11  3  1  0
 11  7  1  0
 11  8  1  0
 12 11  1  0
 13  6  2  3
 14  4  1  0
 14  7  1  0
 14  9  1  0
 14 10  1  1
 15  4  1  0
 15 13  1  0
 16  3  1  0
M  END
>  <ID>  (1) 
conformer_0

$$$$
