
     RDKit          3D

 16 17  0  0  0  0  0  0  0  0999 V2000
   50.2091   10.1724   81.3795 C   0  0  0  0  0  0  0  0  0  0  0  0
   51.7165   10.9618   80.6725 C   0  0  0  0  0  0  0  0  0  0  0  0
   53.2462   17.5358   83.1676 C   0  0  0  0  0  0  0  0  0  0  0  0
   52.7348   11.6858   81.0358 C   0  0  0  0  0  0  0  0  0  0  0  0
   53.8056   15.7934   82.9305 C   0  0  0  0  0  0  0  0  0  0  0  0
   53.8932   12.3252   80.2058 C   0  0  0  0  0  0  0  0  0  0  0  0
   55.4275   11.0615   81.5549 O   0  0  0  0  0  0  0  0  0  0  0  0
   54.1473   17.5999   82.5616 C   0  0  0  0  0  0  0  0  0  0  0  0
   52.1824   16.3152   83.4249 O   0  0  0  0  0  0  0  0  0  0  0  0
   54.8641   14.1285   83.3570 O   0  0  0  0  0  0  0  0  0  0  0  0
   54.2641   15.1409   81.9206 N   0  0  0  0  0  0  0  0  0  0  0  0
   55.0977   12.0769   81.2381 C   0  0  0  0  0  0  0  0  0  0  0  0
   55.6740   13.4400   80.7855 C   0  0  0  0  0  0  0  0  0  0  0  0
   51.1021   11.8834   82.1891 C   0  0  0  0  0  0  0  0  0  0  0  0
   49.5683   11.0297   82.5479 C   0  0  0  0  0  0  0  0  0  0  0  0
   55.0865   14.1299   82.1943 C   0  0  0  0  0  0  0  0  0  0  0  0
  2  1  1  0
  4  2  1  0
  5  3  1  0
  6  4  1  0
  8  3  1  0
  9  3  1  0
  9  5  1  0
 11  5  1  0
 12  6  1  0
 12  7  2  0
 13 12  1  0
 14  2  1  0
 15  1  1  0
 15 14  1  0
 16 10  2  0
 16 11  1  0
 16 13  1  0
M  END
>  <ID>  (1) 
conformer_0

$$$$
