
     RDKit          3D

 15 14  0  0  0  0  0  0  0  0999 V2000
   49.9837   10.0254   81.1782 C   0  0  0  0  0  0  0  0  0  0  0  0
   50.2202   11.4122   82.2795 C   0  0  0  0  0  0  0  0  0  0  0  0
   53.7160   17.9077   82.9861 C   0  0  0  0  0  0  0  0  0  0  0  0
   51.3259   10.6716   80.8096 C   0  0  0  0  0  0  0  0  0  0  0  0
   53.2375   16.2807   83.1570 C   0  0  0  0  0  0  0  0  0  0  0  0
   55.1153   14.1012   83.4618 O   0  0  0  0  0  0  0  0  0  0  0  0
   52.1897   15.9562   83.5090 O   0  0  0  0  0  0  0  0  0  0  0  0
   54.3878   15.7993   82.1402 N   0  0  0  0  0  0  0  0  0  0  0  0
   55.2813   11.4413   81.9399 O   0  0  0  0  0  0  0  0  0  0  0  0
   52.2340   11.9186   81.4613 C   0  0  0  0  0  0  0  0  0  0  0  0
   53.4682   18.4281   84.0408 O   0  0  0  0  0  0  0  0  0  0  0  0
   54.8476   14.6569   82.4093 C   0  0  0  0  0  0  0  0  0  0  0  0
   53.3138   12.1059   80.8257 C   0  0  0  0  0  0  0  0  0  0  0  0
   55.1593   12.4728   81.6161 C   0  0  0  0  0  0  0  0  0  0  0  0
   54.8130   13.2887   81.2384 C   0  0  0  0  0  0  0  0  0  0  0  0
  2  1  1  0
  4  1  1  0
  5  3  1  0
  7  5  2  0
  8  5  1  0
 10  4  1  0
 11  3  1  0
 12  6  2  0
 12  8  1  0
 13 10  1  0
 14  9  1  0
 15 12  1  0
 15 13  1  0
 15 14  1  0
M  END
>  <ID>  (1) 
conformer_0

$$$$
