
     RDKit          3D

 17 17  0  0  0  0  0  0  0  0999 V2000
   49.5809   11.1009   82.5690 C   0  0  0  0  0  0  0  0  0  0  0  0
   51.0471   10.5659   80.9498 C   0  0  0  0  0  0  0  0  0  0  0  0
   53.2958   17.7810   83.1939 C   0  0  2  0  0  0  0  0  0  0  0  0
   51.8580   11.4041   81.4176 C   0  0  0  0  0  0  0  0  0  0  0  0
   54.9743   14.1389   82.1595 C   0  0  0  0  0  0  0  0  0  0  0  0
   55.5108   11.2452   81.5566 O   0  0  0  0  0  0  0  0  0  0  0  0
   52.0888   15.1933   83.3148 O   0  0  0  0  0  0  0  0  0  0  0  0
   54.4960   15.3956   81.8797 N   0  0  0  0  0  0  0  0  0  0  0  0
   55.3541   13.8845   83.3290 O   0  0  0  0  0  0  0  0  0  0  0  0
   53.1034   11.9516   80.7517 C   0  0  0  0  0  0  0  0  0  0  0  0
   54.1802   16.7536   82.5234 C   0  0  2  0  0  0  0  0  0  0  0  0
   53.8342   18.3687   83.9258 O   0  0  0  0  0  0  0  0  0  0  0  0
   54.6562   13.1267   80.9066 C   0  0  2  0  0  0  0  0  0  0  0  0
   55.1056   12.1762   81.4366 C   0  0  0  0  0  0  0  0  0  0  0  0
   52.1307   17.2548   83.4600 O   0  0  0  0  0  0  0  0  0  0  0  0
   49.6276    9.9583   81.5686 C   0  0  0  0  0  0  0  0  0  0  0  0
   52.7800   15.6531   82.9215 C   0  0  2  0  0  0  0  0  0  0  0  0
  4  2  2  3
  8  5  1  0
  9  5  2  0
 10  4  1  0
 11  3  1  0
 11  8  1  6
  3 12  1  1
 13  5  1  0
 13 10  1  1
 14  6  1  0
 14 13  1  0
 15  3  1  0
 16  1  1  0
 16  2  1  0
 17  7  1  1
 17 11  1  0
 17 15  1  0
M  END
>  <ID>  (1) 
conformer_0

$$$$
