
     RDKit          3D

 15 14  0  0  0  0  0  0  0  0999 V2000
   51.5298   11.7938   81.7967 C   0  0  0  0  0  0  0  0  0  0  0  0
   50.2919    9.9265   81.0454 C   0  0  0  0  0  0  0  0  0  0  0  0
   53.4154   17.9281   83.3245 C   0  0  0  0  0  0  0  0  0  0  0  0
   55.9032   13.9042   81.4262 C   0  0  0  0  0  0  0  0  0  0  0  0
   55.1724   11.2417   81.7467 O   0  0  0  0  0  0  0  0  0  0  0  0
   52.2835   15.8672   83.4887 O   0  0  0  0  0  0  0  0  0  0  0  0
   54.4183   17.7692   82.6653 C   0  0  0  0  0  0  0  0  0  0  0  0
   52.1421   11.2580   80.7926 C   0  0  0  0  0  0  0  0  0  0  0  0
   53.5272   16.1335   82.8888 C   0  0  0  0  0  0  0  0  0  0  0  0
   54.5467   14.1663   83.2790 O   0  0  0  0  0  0  0  0  0  0  0  0
   54.2345   15.4513   82.0657 N   0  0  0  0  0  0  0  0  0  0  0  0
   54.8051   12.0449   81.5701 C   0  0  0  0  0  0  0  0  0  0  0  0
   53.5007   12.3775   81.0082 C   0  0  0  0  0  0  0  0  0  0  0  0
   54.9025   14.3847   82.3344 C   0  0  0  0  0  0  0  0  0  0  0  0
   49.8957   10.7431   82.0967 C   0  0  0  0  0  0  0  0  0  0  0  0
  7  3  1  0
  8  1  1  0
  9  3  1  0
  9  6  2  0
 11  9  1  0
 12  4  1  0
 12  5  2  0
 13  8  1  0
 13 12  1  0
 14  4  1  0
 14 10  2  0
 14 11  1  0
 15  1  1  0
 15  2  1  0
M  END
>  <ID>  (1) 
conformer_0

$$$$
