
     RDKit          3D

 15 15  0  0  0  0  0  0  0  0999 V2000
   50.3490    9.9879   81.1224 C   0  0  0  0  0  0  0  0  0  0  0  0
   49.7516   10.6406   81.9279 C   0  0  0  0  0  0  0  0  0  0  0  0
   53.1299   15.9313   83.1453 C   0  0  0  0  0  0  0  0  0  0  0  0
   54.8293   14.5772   82.4471 C   0  0  0  0  0  0  0  0  0  0  0  0
   51.7592   11.2960   81.4613 C   0  0  0  0  0  0  0  0  0  0  0  0
   51.9984   15.3460   83.3773 O   0  0  0  0  0  0  0  0  0  0  0  0
   54.3601   15.2522   81.9825 N   0  0  0  0  0  0  0  0  0  0  0  0
   54.3426   18.0478   82.4397 C   0  0  0  0  0  0  0  0  0  0  0  0
   55.1631   14.0480   83.3219 O   0  0  0  0  0  0  0  0  0  0  0  0
   55.2921   11.0428   81.2297 O   0  0  0  0  0  0  0  0  0  0  0  0
   52.7338   11.8011   81.1396 C   0  0  0  0  0  0  0  0  0  0  0  0
   53.5974   17.4367   83.2180 C   0  0  0  0  0  0  0  0  0  0  0  0
   54.4998   12.9787   80.8346 C   0  0  0  0  0  0  0  0  0  0  0  0
   55.2646   12.5875   81.4158 C   0  0  0  0  0  0  0  0  0  0  0  0
   52.2328   17.1889   83.4019 O   0  0  0  0  0  0  0  0  0  0  0  0
  2  1  1  0
  5  1  1  0
  6  3  1  0
  7  3  1  0
  7  4  1  0
  9  4  2  0
 11  5  1  0
 12  3  1  0
 12  8  1  0
 13 11  1  0
 14  4  1  0
 14 10  1  0
 14 13  1  0
 15  3  1  0
 15 12  1  0
M  END
>  <ID>  (1) 
conformer_0

$$$$
