
     RDKit          3D

 13 12  0  0  0  0  0  0  0  0999 V2000
   50.0056   11.1929   82.2694 C   0  0  0  0  0  0  0  0  0  0  0  0
   50.4605   10.4889   81.2520 C   0  0  0  0  0  0  0  0  0  0  0  0
   53.2370   16.9227   83.0971 C   0  0  0  0  0  0  0  0  0  0  0  0
   54.6424   15.1041   82.5217 C   0  0  2  0  0  0  0  0  0  0  0  0
   55.4390   11.1326   81.6079 O   0  0  0  0  0  0  0  0  0  0  0  0
   51.9002   11.5906   81.3091 C   0  0  0  0  0  0  0  0  0  0  0  0
   54.4453   17.4554   82.6320 C   0  0  0  0  0  0  0  0  0  0  0  0
   52.0274   16.1685   83.4115 O   0  0  0  0  0  0  0  0  0  0  0  0
   54.6278   15.0300   81.8994 N   0  0  0  0  0  0  0  0  0  0  0  0
   52.8748   11.6907   80.7102 C   0  0  0  0  0  0  0  0  0  0  0  0
   55.1586   12.6039   81.5050 C   0  0  1  0  0  0  0  0  0  0  0  0
   55.0241   13.0298   80.6826 C   0  0  0  0  0  0  0  0  0  0  0  0
   54.8609   13.8046   83.1571 O   0  0  0  0  0  0  0  0  0  0  0  0
  2  1  1  0
  6  2  1  0
  7  3  1  0
  7  4  1  0
  8  3  1  0
  4  9  1  6
 10  6  2  3
 11  4  1  0
 11  5  1  1
 12 10  1  0
 12 11  1  0
 13  4  1  0
M  END
>  <ID>  (1) 
conformer_0

$$$$
