
     RDKit          3D

 15 16  0  0  0  0  0  0  0  0999 V2000
   50.1928   11.4738   82.3678 C   0  0  0  0  0  0  0  0  0  0  0  0
   51.5226   10.9605   81.0388 C   0  0  0  0  0  0  0  0  0  0  0  0
   53.0579   17.4518   83.4228 C   0  0  0  0  0  0  0  0  0  0  0  0
   52.5253   11.7979   81.5317 C   0  0  0  0  0  0  0  0  0  0  0  0
   52.1045   16.3743   83.7057 O   0  0  0  0  0  0  0  0  0  0  0  0
   55.6279   11.0228   81.5182 O   0  0  0  0  0  0  0  0  0  0  0  0
   53.8433   16.3903   82.6200 C   0  0  0  0  0  0  0  0  0  0  0  0
   55.0599   14.2064   83.0845 O   0  0  0  0  0  0  0  0  0  0  0  0
   54.4586   15.5780   81.7526 N   0  0  0  0  0  0  0  0  0  0  0  0
   54.2318   17.8462   82.6934 C   0  0  0  0  0  0  0  0  0  0  0  0
   53.5898   11.8935   80.7531 C   0  0  0  0  0  0  0  0  0  0  0  0
   55.1973   14.3961   82.1282 C   0  0  0  0  0  0  0  0  0  0  0  0
   55.0936   13.1728   81.2047 C   0  0  0  0  0  0  0  0  0  0  0  0
   55.3189   12.0370   81.4589 C   0  0  0  0  0  0  0  0  0  0  0  0
   49.9062   10.2514   81.5771 C   0  0  0  0  0  0  0  0  0  0  0  0
  2  1  1  0
  4  2  1  0
  5  3  1  0
  7  3  1  0
  9  7  1  0
 10  3  1  0
 10  7  1  0
 11  4  1  0
 12  8  1  0
 12  9  1  0
 13 12  1  0
 14  6  2  0
 14 11  1  0
 14 13  1  0
 15  1  1  0
 15  2  1  0
M  END
>  <ID>  (1) 
conformer_0

$$$$
