
     RDKit          3D

 16 16  0  0  0  0  0  0  0  0999 V2000
   50.4938   10.3976   81.0932 C   0  0  0  0  0  0  0  0  0  0  0  0
   49.4307   10.9443   82.3275 C   0  0  0  0  0  0  0  0  0  0  0  0
   53.9053   17.0952   82.7039 C   0  0  0  0  0  0  0  0  0  0  0  0
   51.0995   11.7285   81.9735 C   0  0  0  0  0  0  0  0  0  0  0  0
   52.3045   16.8224   83.5408 O   0  0  0  0  0  0  0  0  0  0  0  0
   55.2132   14.5825   82.2127 C   0  0  0  0  0  0  0  0  0  0  0  0
   54.3237   17.9687   82.6473 C   0  0  0  0  0  0  0  0  0  0  0  0
   55.4087   11.4866   81.9186 O   0  0  0  0  0  0  0  0  0  0  0  0
   52.3897   11.4247   80.8198 C   0  0  0  0  0  0  0  0  0  0  0  0
   55.2539   14.2341   82.8793 O   0  0  0  0  0  0  0  0  0  0  0  0
   53.3834   12.0114   80.8509 C   0  0  0  0  0  0  0  0  0  0  0  0
   55.0924   12.1595   81.5185 C   0  0  0  0  0  0  0  0  0  0  0  0
   54.2332   15.3009   81.8175 N   0  0  0  0  0  0  0  0  0  0  0  0
   52.8050   15.7808   83.1975 C   0  0  0  0  0  0  0  0  0  0  0  0
   55.5057   13.3734   81.0290 C   0  0  0  0  0  0  0  0  0  0  0  0
   52.0639   15.1266   83.5397 O   0  0  0  0  0  0  0  0  0  0  0  0
  2  1  1  0
  4  1  1  0
  4  2  1  0
  7  3  3  0
  9  4  1  0
 10  6  1  0
 11  9  1  0
 12  8  2  0
 12 11  1  0
 13  6  1  0
 14  3  1  0
 14  5  1  0
 14  6  1  0
 15  6  1  0
 15 12  1  0
 16 14  1  0
M  END
>  <ID>  (1) 
conformer_0

$$$$
