
     RDKit          3D

 16 15  0  0  0  0  0  0  0  0999 V2000
   50.2597   10.1412   81.4251 C   0  0  0  0  0  0  0  0  0  0  0  0
   49.5024   11.1325   82.5128 C   0  0  0  0  0  0  0  0  0  0  0  0
   53.4876   17.4814   83.1429 C   0  0  0  0  0  0  0  0  0  0  0  0
   52.0639   11.0198   81.3942 C   0  0  0  0  0  0  0  0  0  0  0  0
   54.0349   17.9812   82.8251 C   0  0  0  0  0  0  0  0  0  0  0  0
   55.0169   14.2747   83.3546 O   0  0  0  0  0  0  0  0  0  0  0  0
   52.2891   15.5612   83.3664 O   0  0  0  0  0  0  0  0  0  0  0  0
   53.2811   15.8582   83.0590 C   0  0  0  0  0  0  0  0  0  0  0  0
   55.2272   11.1379   81.6846 O   0  0  0  0  0  0  0  0  0  0  0  0
   53.0599   11.6990   80.3754 C   0  0  0  0  0  0  0  0  0  0  0  0
   54.2892   15.6429   81.9131 N   0  0  0  0  0  0  0  0  0  0  0  0
   53.8690   12.6965   80.6425 C   0  0  0  0  0  0  0  0  0  0  0  0
   55.1696   12.2147   81.5220 C   0  0  0  0  0  0  0  0  0  0  0  0
   55.7603   13.6077   81.2610 C   0  0  0  0  0  0  0  0  0  0  0  0
   51.1634   11.8326   81.9118 C   0  0  0  0  0  0  0  0  0  0  0  0
   55.1082   14.5954   82.3178 C   0  0  0  0  0  0  0  0  0  0  0  0
  2  1  1  0
  5  3  2  3
  8  3  1  0
  8  7  2  0
 10  4  1  0
 11  8  1  0
 12 10  1  0
 13  9  2  0
 13 12  1  0
 14 13  1  0
 15  2  1  0
 15  4  1  0
 16  6  2  0
 16 11  1  0
 16 14  1  0
M  END
>  <ID>  (1) 
conformer_0

$$$$
