
     RDKit          3D

 15 15  0  0  0  0  0  0  0  0999 V2000
   49.8149   11.1639   82.4809 C   0  0  0  0  0  0  0  0  0  0  0  0
   50.8194   10.8445   81.4398 C   0  0  0  0  0  0  0  0  0  0  0  0
   53.7188   17.3845   82.8880 C   0  0  0  0  0  0  0  0  0  0  0  0
   54.6962   14.4675   82.2736 C   0  0  0  0  0  0  0  0  0  0  0  0
   52.0924   11.5523   81.2688 C   0  0  0  0  0  0  0  0  0  0  0  0
   55.6340   10.9295   81.2456 O   0  0  0  0  0  0  0  0  0  0  0  0
   53.3385   12.0321   80.7764 C   0  0  0  0  0  0  0  0  0  0  0  0
   52.0120   15.1681   83.7613 O   0  0  0  0  0  0  0  0  0  0  0  0
   54.9362   14.2828   83.2319 O   0  0  0  0  0  0  0  0  0  0  0  0
   54.0041   15.0649   81.8432 N   0  0  0  0  0  0  0  0  0  0  0  0
   55.6874   13.2612   80.8410 C   0  0  0  0  0  0  0  0  0  0  0  0
   55.1464   12.2507   81.3220 C   0  0  2  0  0  0  0  0  0  0  0  0
   52.8409   15.9280   83.0503 C   0  0  2  0  0  0  0  0  0  0  0  0
   54.3747   17.9084   82.5943 C   0  0  0  0  0  0  0  0  0  0  0  0
   52.0733   17.0545   83.4480 O   0  0  0  0  0  0  0  0  0  0  0  0
  2  1  1  0
  5  2  2  0
  7  5  2  0
  9  4  2  0
 10  4  1  0
 11  4  1  0
 12  6  1  6
 12  7  1  0
 12 11  1  0
 13  3  1  0
 13  8  1  1
 13 10  1  0
 14  3  2  3
 15  3  1  0
 15 13  1  0
M  END
>  <ID>  (1) 
conformer_0

$$$$
