
     RDKit          3D

 16 17  0  0  0  0  0  0  0  0999 V2000
   50.3545    9.9558   80.8856 C   0  0  0  0  0  0  0  0  0  0  0  0
   49.8487   10.7241   82.3355 C   0  0  0  0  0  0  0  0  0  0  0  0
   53.6792   17.8257   83.0023 C   0  0  0  0  0  0  0  0  0  0  0  0
   55.1150   13.0717   81.0676 C   0  0  0  0  0  0  0  0  0  0  0  0
   54.9651   14.3197   82.3434 C   0  0  0  0  0  0  0  0  0  0  0  0
   55.4083   13.9780   83.3826 O   0  0  0  0  0  0  0  0  0  0  0  0
   54.3362   15.4409   82.1579 N   0  0  0  0  0  0  0  0  0  0  0  0
   52.0892   15.3385   83.5930 O   0  0  0  0  0  0  0  0  0  0  0  0
   55.3972   10.7634   80.7670 O   0  0  0  0  0  0  0  0  0  0  0  0
   54.4316   18.0867   82.4896 C   0  0  0  0  0  0  0  0  0  0  0  0
   51.2110   11.7673   82.0296 C   0  0  0  0  0  0  0  0  0  0  0  0
   55.0082   11.8125   80.9496 C   0  0  0  0  0  0  0  0  0  0  0  0
   53.4586   12.2187   80.8378 C   0  0  0  0  0  0  0  0  0  0  0  0
   53.2902   16.1703   83.0849 C   0  0  0  0  0  0  0  0  0  0  0  0
   52.4946   17.1066   83.5811 O   0  0  0  0  0  0  0  0  0  0  0  0
   51.7681   11.1317   80.9725 C   0  0  0  0  0  0  0  0  0  0  0  0
  2  1  1  0
  5  4  1  0
  6  5  2  0
  7  5  1  0
 10  3  1  0
 11  2  1  0
 12  4  1  0
 12  9  2  0
 13 12  1  0
 14  3  1  0
 14  7  1  0
 14  8  1  0
 15  3  1  0
 15 14  1  0
 16  1  1  0
 16 11  1  0
 16 13  1  0
M  END
>  <ID>  (1) 
conformer_0

$$$$
