
     RDKit          3D

 15 14  0  0  0  0  0  0  0  0999 V2000
   49.6008   10.4023   82.0288 C   0  0  0  0  0  0  0  0  0  0  0  0
   50.4530   11.3859   82.0903 C   0  0  0  0  0  0  0  0  0  0  0  0
   53.4065   17.5562   83.0382 C   0  0  0  0  0  0  0  0  0  0  0  0
   51.7129   11.1724   81.2486 C   0  0  0  0  0  0  0  0  0  0  0  0
   53.3306   15.8409   83.0034 C   0  0  0  0  0  0  0  0  0  0  0  0
   55.5658   13.9626   83.0280 O   0  0  0  0  0  0  0  0  0  0  0  0
   52.1222   17.5272   83.4775 O   0  0  0  0  0  0  0  0  0  0  0  0
   52.9113   11.8746   81.1155 C   0  0  0  0  0  0  0  0  0  0  0  0
   54.1729   15.3353   82.0554 N   0  0  0  0  0  0  0  0  0  0  0  0
   54.3420   17.9114   82.3372 C   0  0  0  0  0  0  0  0  0  0  0  0
   55.2188   10.8811   81.0416 O   0  0  0  0  0  0  0  0  0  0  0  0
   55.1221   14.1380   82.2729 C   0  0  0  0  0  0  0  0  0  0  0  0
   54.8452   13.0432   80.6147 C   0  0  0  0  0  0  0  0  0  0  0  0
   55.1297   12.0772   81.1877 C   0  0  1  0  0  0  0  0  0  0  0  0
   52.1389   15.5142   83.5339 O   0  0  0  0  0  0  0  0  0  0  0  0
  2  1  1  0
  4  2  1  0
  5  3  1  0
  7  3  1  0
  8  4  1  0
  9  5  1  0
 10  3  2  3
 12  6  2  0
 12  9  1  0
 13 12  1  0
 14  8  1  0
 14 11  1  6
 14 13  1  0
 15  5  2  0
M  END
>  <ID>  (1) 
conformer_0

$$$$
