
     RDKit          3D

 16 16  0  0  0  0  0  0  0  0999 V2000
   49.5823   11.0828   82.5624 C   0  0  0  0  0  0  0  0  0  0  0  0
   50.4047   10.1212   81.3550 C   0  0  0  0  0  0  0  0  0  0  0  0
   53.2535   17.6710   83.3690 C   0  0  0  0  0  0  0  0  0  0  0  0
   55.1765   11.0456   81.3919 O   0  0  0  0  0  0  0  0  0  0  0  0
   51.3056   11.4517   81.7420 C   0  0  0  0  0  0  0  0  0  0  0  0
   53.6382   16.0270   82.7843 C   0  0  0  0  0  0  0  0  0  0  0  0
   52.2485   17.6646   83.4976 O   0  0  0  0  0  0  0  0  0  0  0  0
   54.3934   17.8451   82.6648 C   0  0  0  0  0  0  0  0  0  0  0  0
   55.0144   14.1298   83.2254 O   0  0  0  0  0  0  0  0  0  0  0  0
   52.3181   11.2801   81.0440 C   0  0  0  0  0  0  0  0  0  0  0  0
   54.1363   15.2744   81.8854 N   0  0  0  0  0  0  0  0  0  0  0  0
   55.0179   14.3831   82.0461 C   0  0  0  0  0  0  0  0  0  0  0  0
   55.7952   13.4180   81.1173 C   0  0  0  0  0  0  0  0  0  0  0  0
   52.1011   15.7486   83.3538 O   0  0  0  0  0  0  0  0  0  0  0  0
   54.8566   12.1405   81.3344 C   0  0  0  0  0  0  0  0  0  0  0  0
   53.4906   12.4538   80.7946 C   0  0  0  0  0  0  0  0  0  0  0  0
  2  1  1  0
  5  1  1  0
  5  2  1  0
  6  3  1  0
  7  3  1  0
  8  3  1  0
 10  5  1  0
 11  6  1  0
 12  9  2  0
 12 11  1  0
 13 12  1  0
 14  6  2  0
 15  4  2  0
 15 13  1  0
 16 10  1  0
 16 15  1  0
M  END
>  <ID>  (1) 
conformer_0

$$$$
