
     RDKit          3D

 14 13  0  0  0  0  0  0  0  0999 V2000
   51.5287   11.6365   81.8210 C   0  0  0  0  0  0  0  0  0  0  0  0
   49.6775   10.7148   82.0143 C   0  0  0  0  0  0  0  0  0  0  0  0
   52.9285   16.3941   83.2582 C   0  0  0  0  0  0  0  0  0  0  0  0
   52.3365   11.3073   80.4433 C   0  0  0  0  0  0  0  0  0  0  0  0
   56.0462   13.4947   81.0913 C   0  0  0  0  0  0  0  0  0  0  0  0
   55.1709   12.4465   81.3083 C   0  0  0  0  0  0  0  0  0  0  0  0
   55.5353   11.1688   81.5078 O   0  0  0  0  0  0  0  0  0  0  0  0
   52.1223   15.7290   83.5040 O   0  0  0  0  0  0  0  0  0  0  0  0
   54.3788   15.6052   82.1839 N   0  0  0  0  0  0  0  0  0  0  0  0
   54.9423   14.0719   83.2810 O   0  0  0  0  0  0  0  0  0  0  0  0
   53.7756   17.7519   83.2570 C   0  0  0  0  0  0  0  0  0  0  0  0
   53.5978   12.0638   80.3960 C   0  0  0  0  0  0  0  0  0  0  0  0
   54.8943   14.6847   82.4490 C   0  0  0  0  0  0  0  0  0  0  0  0
   50.4758   10.3674   80.9072 C   0  0  0  0  0  0  0  0  0  0  0  0
  4  1  1  0
  6  5  1  0
  7  6  1  0
  8  3  2  0
  9  3  1  0
 11  3  1  0
 12  4  1  0
 12  6  1  0
 13  5  1  0
 13  9  1  0
 13 10  2  0
 14  1  1  0
 14  2  1  0
M  END
>  <ID>  (1) 
conformer_0

$$$$
