
     RDKit          3D

 15 14  0  0  0  0  0  0  0  0999 V2000
   50.1660   11.0300   82.0173 C   0  0  0  0  0  0  0  0  0  0  0  0
   50.3201   10.1393   81.1113 C   0  0  0  0  0  0  0  0  0  0  0  0
   53.3124   16.1177   83.1530 C   0  0  0  0  0  0  0  0  0  0  0  0
   55.0988   14.4789   82.0485 C   0  0  0  0  0  0  0  0  0  0  0  0
   51.8501   11.2579   81.2898 C   0  0  0  0  0  0  0  0  0  0  0  0
   55.4398   11.2236   81.8019 O   0  0  0  0  0  0  0  0  0  0  0  0
   52.2396   16.3170   83.8228 O   0  0  0  0  0  0  0  0  0  0  0  0
   54.2370   15.1445   81.9392 N   0  0  0  0  0  0  0  0  0  0  0  0
   53.4895   18.8117   84.2742 O   0  0  0  0  0  0  0  0  0  0  0  0
   54.4521   17.8079   82.7047 C   0  0  0  0  0  0  0  0  0  0  0  0
   52.6949   11.4318   80.6248 C   0  0  0  0  0  0  0  0  0  0  0  0
   53.3540   17.7245   83.3553 C   0  0  0  0  0  0  0  0  0  0  0  0
   55.4359   14.1403   82.9274 O   0  0  0  0  0  0  0  0  0  0  0  0
   55.0268   12.2475   81.4827 C   0  0  0  0  0  0  0  0  0  0  0  0
   54.2619   12.5233   80.6185 C   0  0  0  0  0  0  0  0  0  0  0  0
  2  1  1  0
  5  1  1  0
  7  3  2  0
  8  3  1  0
  8  4  1  0
 11  5  1  0
 12  3  1  0
 12  9  1  0
 12 10  1  0
 13  4  1  0
 14  4  1  0
 14  6  2  0
 15 11  1  0
 15 14  1  0
M  END
>  <ID>  (1) 
conformer_0

$$$$
