
     RDKit          3D

 16 15  0  0  0  0  0  0  0  0999 V2000
   49.6015   10.8314   82.3695 C   0  0  0  0  0  0  0  0  0  0  0  0
   50.7252   11.6939   82.1909 C   0  0  0  0  0  0  0  0  0  0  0  0
   53.2550   17.3213   83.0319 C   0  0  0  0  0  0  0  0  0  0  0  0
   54.3496   17.6746   82.6980 C   0  0  0  0  0  0  0  0  0  0  0  0
   51.4318   10.8171   81.1256 C   0  0  0  0  0  0  0  0  0  0  0  0
   53.2489   15.8528   83.1503 C   0  0  0  0  0  0  0  0  0  0  0  0
   55.1106   14.2963   83.4272 O   0  0  0  0  0  0  0  0  0  0  0  0
   52.1371   15.7518   83.5991 O   0  0  0  0  0  0  0  0  0  0  0  0
   54.5135   15.1145   81.8927 N   0  0  0  0  0  0  0  0  0  0  0  0
   56.0942   13.2830   81.0809 C   0  0  0  0  0  0  0  0  0  0  0  0
   52.6690   11.7009   81.0403 C   0  0  0  0  0  0  0  0  0  0  0  0
   55.0638   11.1045   81.6153 O   0  0  0  0  0  0  0  0  0  0  0  0
   54.8663   12.3463   81.2222 C   0  0  0  0  0  0  0  0  0  0  0  0
   53.0815   18.0616   84.1820 O   0  0  0  0  0  0  0  0  0  0  0  0
   55.2511   14.3842   82.3839 C   0  0  0  0  0  0  0  0  0  0  0  0
   53.7246   11.9840   80.3168 C   0  0  0  0  0  0  0  0  0  0  0  0
  2  1  1  0
  4  3  1  0
  5  2  1  0
  6  3  1  0
  8  6  2  0
  9  6  1  0
 11  5  1  0
 13 10  1  0
 13 12  1  0
 14  3  1  0
 15  7  2  0
 15  9  1  0
 15 10  1  0
 16 11  1  0
 16 13  1  0
M  END
>  <ID>  (1) 
conformer_0

$$$$
