
     RDKit          3D

 14 13  0  0  0  0  0  0  0  0999 V2000
   52.2521   11.5415   81.0769 C   0  0  0  0  0  0  0  0  0  0  0  0
   50.9901   10.9431   81.4621 C   0  0  0  0  0  0  0  0  0  0  0  0
   53.7006   17.3686   82.8778 C   0  0  0  0  0  0  0  0  0  0  0  0
   54.3490   17.7517   82.3724 C   0  0  0  0  0  0  0  0  0  0  0  0
   49.9412   10.6902   82.0934 C   0  0  0  0  0  0  0  0  0  0  0  0
   55.3019   11.0349   81.8320 O   0  0  0  0  0  0  0  0  0  0  0  0
   52.0750   15.3574   83.4769 O   0  0  0  0  0  0  0  0  0  0  0  0
   53.3098   11.8145   80.3538 C   0  0  0  0  0  0  0  0  0  0  0  0
   54.8620   14.9093   82.3284 C   0  0  2  0  0  0  0  0  0  0  0  0
   54.2972   15.3052   81.9532 N   0  0  0  0  0  0  0  0  0  0  0  0
   54.9406   13.0186   80.8061 C   0  0  1  0  0  0  0  0  0  0  0  0
   55.1224   11.9946   81.4597 C   0  0  0  0  0  0  0  0  0  0  0  0
   54.7783   13.7400   83.0964 O   0  0  0  0  0  0  0  0  0  0  0  0
   52.8219   15.7597   83.2589 C   0  0  0  0  0  0  0  0  0  0  0  0
  2  1  1  0
  4  3  2  3
  5  2  3  0
  8  1  1  0
 10  9  1  0
 11  8  1  1
 11  9  1  0
 12  6  1  0
 12 11  1  0
  9 13  1  1
 14  3  1  0
 14  7  2  0
 14 10  1  0
M  END
>  <ID>  (1) 
conformer_0

$$$$
