
     RDKit          3D

 16 15  0  0  0  0  0  0  0  0999 V2000
   51.6454   11.4076   81.6828 C   0  0  0  0  0  0  0  0  0  0  0  0
   49.6891   11.0104   82.3877 C   0  0  0  0  0  0  0  0  0  0  0  0
   53.2615   15.9109   83.0511 C   0  0  0  0  0  0  0  0  0  0  0  0
   54.9654   14.4073   82.2575 C   0  0  1  0  0  0  0  0  0  0  0  0
   55.3174   11.4075   81.9527 O   0  0  0  0  0  0  0  0  0  0  0  0
   50.6475   10.4994   81.3754 C   0  0  0  0  0  0  0  0  0  0  0  0
   52.1180   16.0191   83.4500 O   0  0  0  0  0  0  0  0  0  0  0  0
   54.4387   15.1423   81.9233 N   0  0  0  0  0  0  0  0  0  0  0  0
   54.2798   17.8653   82.5729 C   0  0  0  0  0  0  0  0  0  0  0  0
   52.8404   11.5294   80.8917 C   0  0  0  0  0  0  0  0  0  0  0  0
   54.4716   14.0498   83.2588 O   0  0  0  0  0  0  0  0  0  0  0  0
   53.4668   18.2952   84.2422 O   0  0  0  0  0  0  0  0  0  0  0  0
   53.5830   12.0463   79.9002 C   0  0  0  0  0  0  0  0  0  0  0  0
   53.4288   17.2766   83.1901 C   0  0  0  0  0  0  0  0  0  0  0  0
   54.9785   12.3605   81.3603 C   0  0  0  0  0  0  0  0  0  0  0  0
   55.4385   13.2265   80.9098 C   0  0  0  0  0  0  0  0  0  0  0  0
  6  1  1  0
  6  2  1  0
  7  3  2  0
  8  3  1  0
  8  4  1  0
 10  1  1  0
  4 11  1  1
 13 10  1  0
 14  3  1  0
 14  9  2  3
 14 12  1  0
 15  5  2  0
 15 13  1  0
 16  4  1  0
 16 15  1  0
M  END
>  <ID>  (1) 
conformer_0

$$$$
