
     RDKit          3D

 13 12  0  0  0  0  0  0  0  0999 V2000
   50.0717   11.2103   82.1653 C   0  0  0  0  0  0  0  0  0  0  0  0
   51.3239   11.1969   81.3418 C   0  0  0  0  0  0  0  0  0  0  0  0
   53.1699   17.2110   83.3383 C   0  0  0  0  0  0  0  0  0  0  0  0
   54.3341   17.8662   82.4214 C   0  0  0  0  0  0  0  0  0  0  0  0
   52.6434   11.5674   80.6621 C   0  0  0  0  0  0  0  0  0  0  0  0
   53.7356   15.3704   83.0842 C   0  0  0  0  0  0  0  0  0  0  0  0
   51.9475   16.4009   83.3852 O   0  0  0  0  0  0  0  0  0  0  0  0
   54.2387   15.3402   82.1961 N   0  0  0  0  0  0  0  0  0  0  0  0
   55.1972   13.8181   83.3415 O   0  0  0  0  0  0  0  0  0  0  0  0
   54.0099   12.6190   80.6283 C   0  0  0  0  0  0  0  0  0  0  0  0
   55.1996   12.9470   81.7299 C   0  0  0  0  0  0  0  0  0  0  0  0
   53.1017   18.3700   84.0603 O   0  0  0  0  0  0  0  0  0  0  0  0
   55.3225   11.5911   82.1298 O   0  0  0  0  0  0  0  0  0  0  0  0
  2  1  1  0
  4  3  1  0
  5  2  1  0
  6  3  1  0
  7  3  1  0
  8  6  1  0
  9  6  1  0
 10  5  1  0
 11  9  1  0
 11 10  1  0
 12  3  1  0
 13 11  1  0
M  END
>  <ID>  (1) 
conformer_0

$$$$
