
     RDKit          3D

 13 12  0  0  0  0  0  0  0  0999 V2000
   50.3843   10.4079   81.0869 C   0  0  0  0  0  0  0  0  0  0  0  0
   51.5515   11.1434   81.1303 C   0  0  0  0  0  0  0  0  0  0  0  0
   53.5555   17.2009   83.1013 C   0  0  0  0  0  0  0  0  0  0  0  0
   52.9466   11.4879   80.6197 C   0  0  0  0  0  0  0  0  0  0  0  0
   54.2513   17.7164   82.5769 C   0  0  0  0  0  0  0  0  0  0  0  0
   52.9933   15.6047   83.1677 C   0  0  1  0  0  0  0  0  0  0  0  0
   52.0195   15.9368   83.5215 O   0  0  0  0  0  0  0  0  0  0  0  0
   55.1794   13.8858   83.3162 O   0  0  0  0  0  0  0  0  0  0  0  0
   49.8128   11.1881   82.4988 C   0  0  0  0  0  0  0  0  0  0  0  0
   54.5084   15.2954   82.0966 N   0  0  0  0  0  0  0  0  0  0  0  0
   55.1962   14.6659   82.4528 C   0  0  2  0  0  0  0  0  0  0  0  0
   54.4580   12.6025   80.5228 C   0  0  0  0  0  0  0  0  0  0  0  0
   55.1857   12.5531   81.3853 C   0  0  0  0  0  0  0  0  0  0  0  0
  2  1  1  0
  4  2  2  3
  5  3  2  3
  6  3  1  0
  6  7  1  6
  9  1  1  0
 10  6  1  0
 11  8  1  1
 11 10  1  0
 12  4  1  0
 13 11  1  0
 13 12  1  0
M  END
>  <ID>  (1) 
conformer_0

$$$$
