
     RDKit          3D

 14 13  0  0  0  0  0  0  0  0999 V2000
   50.0993   10.2489   81.3477 C   0  0  0  0  0  0  0  0  0  0  0  0
   50.6397   11.2783   81.9106 C   0  0  0  0  0  0  0  0  0  0  0  0
   54.1360   17.8054   82.7210 C   0  0  0  0  0  0  0  0  0  0  0  0
   53.2092   17.4648   83.4339 C   0  0  0  0  0  0  0  0  0  0  0  0
   53.4656   15.7766   83.0616 C   0  0  0  0  0  0  0  0  0  0  0  0
   52.0119   11.4429   81.2037 C   0  0  0  0  0  0  0  0  0  0  0  0
   55.5341   11.1051   81.3139 O   0  0  0  0  0  0  0  0  0  0  0  0
   52.1369   15.9355   83.3081 O   0  0  0  0  0  0  0  0  0  0  0  0
   54.8294   14.1499   83.3216 O   0  0  0  0  0  0  0  0  0  0  0  0
   54.3373   15.4060   82.0166 N   0  0  0  0  0  0  0  0  0  0  0  0
   55.1037   12.0580   81.4195 C   0  0  0  0  0  0  0  0  0  0  0  0
   53.0185   11.9903   80.9509 C   0  0  0  0  0  0  0  0  0  0  0  0
   54.4006   13.0680   80.9626 C   0  0  0  0  0  0  0  0  0  0  0  0
   55.0754   14.2362   82.2673 C   0  0  0  0  0  0  0  0  0  0  0  0
  2  1  1  0
  4  3  1  0
  5  4  1  0
  6  2  1  0
  8  5  1  0
 10  5  1  0
 11  7  2  0
 12  6  1  0
 13 11  1  0
 13 12  1  0
 14  9  1  0
 14 10  1  0
 14 13  1  0
M  END
>  <ID>  (1) 
conformer_0

$$$$
