
     RDKit          3D

 16 16  0  0  0  0  0  0  0  0999 V2000
   50.5185   10.3622   81.1362 C   0  0  0  0  0  0  0  0  0  0  0  0
   49.5162   10.9209   82.4544 C   0  0  0  0  0  0  0  0  0  0  0  0
   53.9785   17.3022   82.7243 C   0  0  0  0  0  0  0  0  0  0  0  0
   51.0657   11.6109   81.8727 C   0  0  0  0  0  0  0  0  0  0  0  0
   54.6886   17.7693   82.2680 C   0  0  0  0  0  0  0  0  0  0  0  0
   55.2942   10.9052   81.3060 O   0  0  0  0  0  0  0  0  0  0  0  0
   52.9792   15.8773   83.1281 C   0  0  0  0  0  0  0  0  0  0  0  0
   52.0951   15.0805   83.7228 O   0  0  0  0  0  0  0  0  0  0  0  0
   55.2072   14.3235   83.0541 O   0  0  0  0  0  0  0  0  0  0  0  0
   52.5570   11.4683   80.3974 C   0  0  0  0  0  0  0  0  0  0  0  0
   54.1680   15.0398   81.8400 N   0  0  0  0  0  0  0  0  0  0  0  0
   54.6881   14.5262   82.3033 C   0  0  2  0  0  0  0  0  0  0  0  0
   53.0706   12.3315   81.0784 C   0  0  0  0  0  0  0  0  0  0  0  0
   55.0393   12.2092   81.3944 C   0  0  2  0  0  0  0  0  0  0  0  0
   55.0410   13.0519   80.8697 C   0  0  0  0  0  0  0  0  0  0  0  0
   52.2568   16.9206   83.4304 O   0  0  0  0  0  0  0  0  0  0  0  0
  2  1  1  0
  4  1  1  0
  4  2  1  0
  5  3  2  3
  7  3  1  0
  8  7  1  0
 10  4  1  0
 12  7  1  0
 12  9  1  0
 12 11  1  6
 13 10  1  0
 14  6  1  6
 14 13  1  0
 15 12  1  0
 15 14  1  0
 16  7  1  0
M  END
>  <ID>  (1) 
conformer_0

$$$$
