
     RDKit          3D

 15 15  0  0  0  0  0  0  0  0999 V2000
   50.4048   10.1645   80.9292 C   0  0  0  0  0  0  0  0  0  0  0  0
   49.5063   10.9874   82.4109 C   0  0  0  0  0  0  0  0  0  0  0  0
   53.8566   17.4536   82.9258 C   0  0  0  0  0  0  0  0  0  0  0  0
   51.0336   11.5157   81.9396 C   0  0  0  0  0  0  0  0  0  0  0  0
   55.4511   11.0557   81.5601 O   0  0  0  0  0  0  0  0  0  0  0  0
   54.8945   14.9192   82.2548 C   0  0  0  0  0  0  0  0  0  0  0  0
   52.1633   15.7178   83.7457 O   0  0  0  0  0  0  0  0  0  0  0  0
   54.5786   15.3790   81.6897 N   0  0  0  0  0  0  0  0  0  0  0  0
   52.1685   11.3026   80.8231 C   0  0  0  0  0  0  0  0  0  0  0  0
   54.9799   14.0977   83.0709 O   0  0  0  0  0  0  0  0  0  0  0  0
   55.1449   12.3814   81.4665 C   0  0  0  0  0  0  0  0  0  0  0  0
   53.1119   12.0026   80.9753 C   0  0  0  0  0  0  0  0  0  0  0  0
   52.8753   16.4097   83.3374 C   0  0  0  0  0  0  0  0  0  0  0  0
   54.3307   17.7157   82.6973 C   0  0  0  0  0  0  0  0  0  0  0  0
   54.8603   12.8574   80.6565 C   0  0  0  0  0  0  0  0  0  0  0  0
  2  1  1  0
  4  1  1  0
  4  2  1  0
  8  6  1  0
  9  4  1  0
 10  6  1  0
 11  5  1  0
 12  9  1  0
 13  3  1  0
 13  6  1  0
 13  7  2  0
 14  3  3  0
 15  6  1  0
 15 11  1  0
 15 12  1  0
M  END
>  <ID>  (1) 
conformer_0

$$$$
