
     RDKit          3D

 16 15  0  0  0  0  0  0  0  0999 V2000
   49.7658   11.0827   82.3461 C   0  0  0  0  0  0  0  0  0  0  0  0
   50.6574   10.7110   81.4372 C   0  0  0  0  0  0  0  0  0  0  0  0
   54.2080   16.3516   82.5793 C   0  0  2  0  0  0  0  0  0  0  0  0
   54.3671   17.6546   82.4576 C   0  0  0  0  0  0  0  0  0  0  0  0
   51.8714   11.5964   81.2909 C   0  0  0  0  0  0  0  0  0  0  0  0
   52.0358   16.2687   83.6975 O   0  0  0  0  0  0  0  0  0  0  0  0
   54.0577   15.0817   81.8781 N   0  0  0  0  0  0  0  0  0  0  0  0
   54.7066   13.8863   81.9573 C   0  0  0  0  0  0  0  0  0  0  0  0
   55.7381   10.9891   81.4333 O   0  0  0  0  0  0  0  0  0  0  0  0
   55.2493   13.4815   83.0080 O   0  0  0  0  0  0  0  0  0  0  0  0
   53.5330   18.4661   84.2756 O   0  0  0  0  0  0  0  0  0  0  0  0
   53.0696   11.7604   80.8466 C   0  0  0  0  0  0  0  0  0  0  0  0
   53.2225   17.8098   83.5704 C   0  0  0  0  0  0  0  0  0  0  0  0
   54.5901   12.7947   80.8737 C   0  0  2  0  0  0  0  0  0  0  0  0
   55.2347   11.7023   81.2307 C   0  0  0  0  0  0  0  0  0  0  0  0
   52.5971   15.7356   83.2221 C   0  0  0  0  0  0  0  0  0  0  0  0
  2  1  2  3
  3  4  1  6
  5  2  1  0
  7  3  1  0
  8  7  1  0
 10  8  2  0
 12  5  2  3
 13  4  1  0
 13 11  1  0
 14  8  1  0
 14 12  1  0
 15  9  1  0
 14 15  1  1
 16  3  1  0
 16  6  2  0
M  END
>  <ID>  (1) 
conformer_0

$$$$
