
     RDKit          3D

 16 17  0  0  0  0  0  0  0  0999 V2000
   50.1310    9.9491   81.4259 C   0  0  0  0  0  0  0  0  0  0  0  0
   50.2100   11.2308   82.2661 C   0  0  0  0  0  0  0  0  0  0  0  0
   54.2993   14.3438   82.0719 C   0  0  0  0  0  0  0  0  0  0  0  0
   54.3487   17.7253   82.5228 C   0  0  0  0  0  0  0  0  0  0  0  0
   55.1673   12.5116   81.4099 C   0  0  0  0  0  0  0  0  0  0  0  0
   51.5543   11.0493   81.2533 C   0  0  0  0  0  0  0  0  0  0  0  0
   52.1533   17.1345   83.5453 O   0  0  0  0  0  0  0  0  0  0  0  0
   54.0754   14.9967   81.7588 N   0  0  0  0  0  0  0  0  0  0  0  0
   55.5121   11.1906   81.7283 O   0  0  0  0  0  0  0  0  0  0  0  0
   55.0806   13.6041   83.0452 O   0  0  0  0  0  0  0  0  0  0  0  0
   52.5016   12.1498   81.4719 C   0  0  0  0  0  0  0  0  0  0  0  0
   53.5835   17.7211   83.2435 C   0  0  0  0  0  0  0  0  0  0  0  0
   53.3639   11.8530   80.3298 C   0  0  0  0  0  0  0  0  0  0  0  0
   52.1678   15.1167   83.5069 O   0  0  0  0  0  0  0  0  0  0  0  0
   54.9487   12.9142   80.7836 C   0  0  0  0  0  0  0  0  0  0  0  0
   52.9499   15.9509   83.2634 C   0  0  0  0  0  0  0  0  0  0  0  0
  2  1  1  0
  6  1  1  0
  6  2  1  0
  8  3  1  0
  9  5  1  0
 10  3  2  0
 11  6  1  0
 12  4  1  0
 12  7  1  0
 13 11  1  0
 15  3  1  0
 15  5  1  0
 15 13  1  0
 16  7  1  0
 16  8  1  0
 16 12  1  0
 16 14  1  0
M  END
>  <ID>  (1) 
conformer_0

$$$$
