
     RDKit          3D

 17 17  0  0  0  0  0  0  0  0999 V2000
   49.4388   10.9853   82.6062 C   0  0  0  0  0  0  0  0  0  0  0  0
   50.3396   10.1971   81.1352 C   0  0  0  0  0  0  0  0  0  0  0  0
   53.1086   17.9901   83.4655 C   0  0  0  0  0  0  0  0  0  0  0  0
   51.0662   11.4171   81.7612 C   0  0  0  0  0  0  0  0  0  0  0  0
   54.2219   17.8567   82.3167 C   0  0  0  0  0  0  0  0  0  0  0  0
   55.7272   10.7603   81.2181 O   0  0  0  0  0  0  0  0  0  0  0  0
   55.1831   13.9746   81.9917 C   0  0  0  0  0  0  0  0  0  0  0  0
   52.0531   15.6698   83.5227 O   0  0  0  0  0  0  0  0  0  0  0  0
   55.2765   13.9246   83.1345 O   0  0  0  0  0  0  0  0  0  0  0  0
   54.3450   15.3100   81.7963 N   0  0  0  0  0  0  0  0  0  0  0  0
   53.1859   18.5210   84.2020 O   0  0  0  0  0  0  0  0  0  0  0  0
   52.3677   11.3826   80.7575 C   0  0  0  0  0  0  0  0  0  0  0  0
   55.2389   11.6535   81.2535 C   0  0  0  0  0  0  0  0  0  0  0  0
   52.7460   15.7539   83.0536 C   0  0  0  0  0  0  0  0  0  0  0  0
   53.2814   12.1713   81.0772 C   0  0  0  0  0  0  0  0  0  0  0  0
   54.9530   12.8877   81.0431 C   0  0  0  0  0  0  0  0  0  0  0  0
   54.2713   16.6210   82.5322 C   0  0  0  0  0  0  0  0  0  0  0  0
  2  1  1  0
  4  1  1  0
  4  2  1  0
  5  3  1  0
  9  7  2  0
 10  7  1  0
 11  3  1  0
 12  4  1  0
 13  6  1  0
 14  8  2  0
 15 12  1  0
 16  7  1  0
 16 13  1  0
 16 15  1  0
 17  5  1  0
 17 10  1  0
 17 14  1  0
M  END
>  <ID>  (1) 
conformer_0

$$$$
