
     RDKit          3D

 16 15  0  0  0  0  0  0  0  0999 V2000
   49.8234   10.0171   81.5095 C   0  0  0  0  0  0  0  0  0  0  0  0
   50.7348   10.7874   81.4230 C   0  0  0  0  0  0  0  0  0  0  0  0
   53.8062   17.7685   83.0623 C   0  0  0  0  0  0  0  0  0  0  0  0
   53.1466   16.1147   83.0997 C   0  0  0  0  0  0  0  0  0  0  0  0
   51.8546   11.6164   81.4422 C   0  0  0  0  0  0  0  0  0  0  0  0
   55.2403   14.2080   83.4131 O   0  0  0  0  0  0  0  0  0  0  0  0
   55.4782   10.8086   81.2000 O   0  0  0  0  0  0  0  0  0  0  0  0
   52.0252   15.9124   83.2370 O   0  0  0  0  0  0  0  0  0  0  0  0
   54.2333   15.4468   82.0280 N   0  0  0  0  0  0  0  0  0  0  0  0
   54.8948   14.4492   82.4111 C   0  0  0  0  0  0  0  0  0  0  0  0
   54.7505   17.4867   82.4288 C   0  0  0  0  0  0  0  0  0  0  0  0
   52.9307   17.5491   83.9873 N   0  0  0  0  0  0  0  0  0  0  0  0
   53.0106   11.8839   80.8668 C   0  0  0  0  0  0  0  0  0  0  0  0
   55.0702   12.2366   81.4342 C   0  0  0  0  0  0  0  0  0  0  0  0
   55.6906   12.8679   82.1242 N   0  0  0  0  0  0  0  0  0  0  0  0
   54.3715   12.8799   80.7052 C   0  0  0  0  0  0  0  0  0  0  0  0
  2  1  3  0
  5  2  1  0
  8  4  2  0
  9  4  1  0
 10  6  2  0
 10  9  1  0
 11  3  2  3
 12  3  1  0
 12  4  1  0
 13  5  2  3
 14  7  2  0
 15 10  1  0
 15 14  1  0
 16 13  1  0
 16 14  1  0
M  END
>  <ID>  (1) 
conformer_0

$$$$
