
     RDKit          3D

 14 14  0  0  0  0  0  0  0  0999 V2000
   50.7655   10.4461   80.9842 C   0  0  0  0  0  0  0  0  0  0  0  0
   51.9383   11.4807   81.2252 C   0  0  0  0  0  0  0  0  0  0  0  0
   53.2911   17.7264   83.2866 C   0  0  0  0  0  0  0  0  0  0  0  0
   53.3962   16.1876   82.9448 C   0  0  0  0  0  0  0  0  0  0  0  0
   52.9212   11.6666   80.1325 C   0  0  0  0  0  0  0  0  0  0  0  0
   52.1387   16.2868   83.7620 O   0  0  0  0  0  0  0  0  0  0  0  0
   55.1000   14.1781   83.5399 O   0  0  0  0  0  0  0  0  0  0  0  0
   55.4704   10.9155   81.3849 O   0  0  0  0  0  0  0  0  0  0  0  0
   54.4794   17.5687   82.5331 C   0  0  0  0  0  0  0  0  0  0  0  0
   54.1693   15.1226   82.0500 N   0  0  0  0  0  0  0  0  0  0  0  0
   50.0513   11.0702   82.2367 C   0  0  0  0  0  0  0  0  0  0  0  0
   54.7691   14.3275   82.3947 C   0  0  0  0  0  0  0  0  0  0  0  0
   54.2304   12.6129   80.6814 C   0  0  0  0  0  0  0  0  0  0  0  0
   55.0898   12.3529   81.5155 C   0  0  0  0  0  0  0  0  0  0  0  0
  2  1  1  0
  4  3  1  0
  5  2  1  0
  6  4  1  0
  9  3  1  0
  9  4  1  0
 10  4  1  0
 11  1  1  0
 12  7  2  0
 12 10  1  0
 13  5  1  0
 14  8  1  0
 14 12  1  0
 14 13  1  0
M  END
>  <ID>  (1) 
conformer_0

$$$$
