
     RDKit          3D

 16 17  0  0  0  0  0  0  0  0999 V2000
   49.4323   10.8685   82.5177 C   0  0  0  0  0  0  0  0  0  0  0  0
   54.1095   17.6271   82.7229 C   0  0  0  0  0  0  0  0  0  0  0  0
   50.1301   10.0806   81.2953 C   0  0  0  0  0  0  0  0  0  0  0  0
   51.1372   11.2937   81.7765 C   0  0  0  0  0  0  0  0  0  0  0  0
   53.2553   15.4263   83.3209 C   0  0  0  0  0  0  0  0  0  0  0  0
   52.1807   11.3347   80.8889 C   0  0  0  0  0  0  0  0  0  0  0  0
   52.3603   15.4973   83.7350 O   0  0  0  0  0  0  0  0  0  0  0  0
   55.2862   10.8558   80.9994 O   0  0  0  0  0  0  0  0  0  0  0  0
   54.3363   15.5458   82.0779 N   0  0  0  0  0  0  0  0  0  0  0  0
   54.6745   14.3953   83.4252 O   0  0  0  0  0  0  0  0  0  0  0  0
   53.0419   17.3376   83.5271 C   0  0  0  0  0  0  0  0  0  0  0  0
   56.3242   12.7668   81.8022 O   0  0  0  0  0  0  0  0  0  0  0  0
   54.7822   13.2448   80.8233 C   0  0  0  0  0  0  0  0  0  0  0  0
   55.2077   14.3740   82.3555 C   0  0  0  0  0  0  0  0  0  0  0  0
   53.3111   12.1674   80.5619 C   0  0  0  0  0  0  0  0  0  0  0  0
   55.1700   12.4250   81.3552 C   0  0  0  0  0  0  0  0  0  0  0  0
  3  1  1  0
  4  1  1  0
  4  3  1  0
  6  4  1  0
  7  5  1  0
  9  5  1  0
 10  5  1  0
 11  2  1  0
 11  5  1  0
 14  9  1  0
 14 10  1  0
 14 13  1  0
 15  6  1  0
 15 13  1  0
 16  8  2  0
 16 12  1  0
 16 13  1  0
M  END
>  <ID>  (1) 
conformer_0

$$$$
