
     RDKit          3D

 13 12  0  0  0  0  0  0  0  0999 V2000
   50.8098   10.2812   80.9355 C   0  0  0  0  0  0  0  0  0  0  0  0
   50.1544   10.6989   81.9644 C   0  0  0  0  0  0  0  0  0  0  0  0
   53.3009   17.4762   83.2925 C   0  0  0  0  0  0  0  0  0  0  0  0
   51.9385   11.5693   81.3248 C   0  0  0  0  0  0  0  0  0  0  0  0
   52.2470   16.2156   83.7125 O   0  0  0  0  0  0  0  0  0  0  0  0
   55.2971   11.0739   81.8001 O   0  0  0  0  0  0  0  0  0  0  0  0
   52.9760   11.9201   80.7368 C   0  0  0  0  0  0  0  0  0  0  0  0
   55.1526   13.9331   83.1760 O   0  0  0  0  0  0  0  0  0  0  0  0
   54.0242   15.7724   82.8499 C   0  0  0  0  0  0  0  0  0  0  0  0
   54.2741   15.4295   81.9529 N   0  0  0  0  0  0  0  0  0  0  0  0
   54.4450   17.7650   82.5773 C   0  0  0  0  0  0  0  0  0  0  0  0
   55.1587   12.9626   81.8851 C   0  0  0  0  0  0  0  0  0  0  0  0
   54.8510   12.9216   80.8705 C   0  0  0  0  0  0  0  0  0  0  0  0
  2  1  1  0
  4  1  1  0
  5  3  1  0
  7  4  1  0
  9  3  1  0
 10  8  1  0
 10  9  1  0
 11  3  1  0
 12  6  2  0
 12  8  1  0
 13  7  1  0
 13 12  1  0
M  END
>  <ID>  (1) 
conformer_0

$$$$
