
     RDKit          3D

 16 17  0  0  0  0  0  0  0  0999 V2000
   49.4997   10.9706   82.2810 C   0  0  0  0  0  0  0  0  0  0  0  0
   50.1798   10.0306   80.8142 C   0  0  0  0  0  0  0  0  0  0  0  0
   53.7314   17.4826   83.1387 C   0  0  0  0  0  0  0  0  0  0  0  0
   54.4013   17.7808   82.4349 C   0  0  0  0  0  0  0  0  0  0  0  0
   51.0728   11.4283   81.6702 C   0  0  0  0  0  0  0  0  0  0  0  0
   52.9934   16.0464   83.2511 C   0  0  0  0  0  0  0  0  0  0  0  0
   52.0844   15.4430   83.3659 O   0  0  0  0  0  0  0  0  0  0  0  0
   54.6726   15.2189   82.1893 N   0  0  0  0  0  0  0  0  0  0  0  0
   52.0323   11.1842   80.4400 C   0  0  0  0  0  0  0  0  0  0  0  0
   55.3795   13.5830   83.1485 O   0  0  0  0  0  0  0  0  0  0  0  0
   55.6262   11.2205   81.6536 O   0  0  0  0  0  0  0  0  0  0  0  0
   54.9603   14.6486   82.4483 C   0  0  0  0  0  0  0  0  0  0  0  0
   53.1253   11.9493   81.0246 C   0  0  0  0  0  0  0  0  0  0  0  0
   55.2551   12.2087   81.4850 C   0  0  0  0  0  0  0  0  0  0  0  0
   54.7201   12.8907   81.0064 C   0  0  0  0  0  0  0  0  0  0  0  0
   52.1562   17.2172   83.4337 O   0  0  0  0  0  0  0  0  0  0  0  0
  2  1  1  0
  4  3  1  0
  5  1  1  0
  5  2  1  0
  6  3  1  0
  7  6  1  0
  9  5  1  0
 12  6  1  0
 12  8  1  0
 12 10  1  0
 13  9  1  0
 14 11  2  0
 15 12  1  0
 15 13  1  0
 15 14  1  0
 16  3  1  0
 16  6  1  0
M  END
>  <ID>  (1) 
conformer_0

$$$$
