
     RDKit          3D

 14 14  0  0  0  0  0  0  0  0999 V2000
   49.6146   10.7313   82.4421 C   0  0  0  0  0  0  0  0  0  0  0  0
   50.2936   10.0847   81.0588 C   0  0  0  0  0  0  0  0  0  0  0  0
   53.8340   15.5887   82.7896 C   0  0  0  0  0  0  0  0  0  0  0  0
   55.0416   13.1602   81.6239 C   0  0  0  0  0  0  0  0  0  0  0  0
   51.2111   11.1403   81.6067 C   0  0  0  0  0  0  0  0  0  0  0  0
   55.4612   11.4813   81.8557 O   0  0  0  0  0  0  0  0  0  0  0  0
   54.2797   17.9309   82.7061 C   0  0  0  0  0  0  0  0  0  0  0  0
   52.3239   15.1700   83.5997 O   0  0  0  0  0  0  0  0  0  0  0  0
   52.4317   11.3355   80.7724 C   0  0  0  0  0  0  0  0  0  0  0  0
   54.3102   14.9606   81.7391 N   0  0  0  0  0  0  0  0  0  0  0  0
   55.1206   13.9973   83.0632 O   0  0  0  0  0  0  0  0  0  0  0  0
   53.4370   11.9823   80.6076 C   0  0  0  0  0  0  0  0  0  0  0  0
   53.1253   16.9853   83.1339 C   0  0  0  0  0  0  0  0  0  0  0  0
   55.2706   13.2073   80.6499 C   0  0  0  0  0  0  0  0  0  0  0  0
  2  1  1  0
  5  1  1  0
  5  2  1  0
  6  4  2  0
  8  3  1  0
  9  5  1  0
 10  3  1  0
 11  4  1  0
 11 10  1  0
 12  9  1  0
 13  3  1  0
 13  7  1  0
 14  4  1  0
 14 12  1  0
M  END
>  <ID>  (1) 
conformer_0

$$$$
