
     RDKit          3D

 12 11  0  0  0  0  0  0  0  0999 V2000
   50.8995   10.9386   81.5427 C   0  0  0  0  0  0  0  0  0  0  0  0
   49.9929   10.5506   81.9841 C   0  0  0  0  0  0  0  0  0  0  0  0
   52.1962   11.6603   81.1421 C   0  0  0  0  0  0  0  0  0  0  0  0
   53.3555   17.1822   83.1363 C   0  0  0  0  0  0  0  0  0  0  0  0
   54.1015   17.9232   82.8945 C   0  0  0  0  0  0  0  0  0  0  0  0
   53.9446   15.2419   82.6646 C   0  0  0  0  0  0  0  0  0  0  0  0
   52.2494   15.2649   83.7177 O   0  0  0  0  0  0  0  0  0  0  0  0
   54.3995   15.4811   81.8883 N   0  0  0  0  0  0  0  0  0  0  0  0
   55.3411   11.2091   81.6152 O   0  0  0  0  0  0  0  0  0  0  0  0
   53.7780   12.5895   80.8853 C   0  0  0  0  0  0  0  0  0  0  0  0
   54.6419   14.1695   83.3007 O   0  0  0  0  0  0  0  0  0  0  0  0
   55.2617   13.0556   81.4894 C   0  0  0  0  0  0  0  0  0  0  0  0
  2  1  3  0
  3  1  1  0
  5  4  1  0
  6  4  1  0
  7  4  1  0
  8  6  1  0
 10  3  1  0
 11  6  1  0
 12  6  1  0
 12  9  1  0
 12 10  1  0
M  END
>  <ID>  (1) 
conformer_0

$$$$
