
     RDKit          3D

 16 16  0  0  0  0  0  0  0  0999 V2000
   49.6134   11.1877   82.4029 C   0  0  0  0  0  0  0  0  0  0  0  0
   50.7408   10.5340   81.4237 C   0  0  0  0  0  0  0  0  0  0  0  0
   53.3067   17.4184   83.3158 C   0  0  0  0  0  0  0  0  0  0  0  0
   51.4940   11.7709   81.7261 C   0  0  0  0  0  0  0  0  0  0  0  0
   55.1468   14.1582   83.3078 O   0  0  0  0  0  0  0  0  0  0  0  0
   55.5474   11.0609   81.3861 O   0  0  0  0  0  0  0  0  0  0  0  0
   54.1829   17.6058   82.7908 C   0  0  0  0  0  0  0  0  0  0  0  0
   52.8881   15.9223   83.1787 C   0  0  0  0  0  0  0  0  0  0  0  0
   52.0269   15.2495   83.6050 O   0  0  0  0  0  0  0  0  0  0  0  0
   52.7962   11.6071   81.0366 C   0  0  0  0  0  0  0  0  0  0  0  0
   54.2476   15.3694   81.8802 N   0  0  0  0  0  0  0  0  0  0  0  0
   55.0627   14.6478   82.4549 C   0  0  0  0  0  0  0  0  0  0  0  0
   53.7244   12.2584   80.5002 C   0  0  0  0  0  0  0  0  0  0  0  0
   55.3715   12.2990   81.4020 C   0  0  0  0  0  0  0  0  0  0  0  0
   52.0137   17.3254   83.4631 O   0  0  0  0  0  0  0  0  0  0  0  0
   55.4296   13.3993   81.0197 C   0  0  0  0  0  0  0  0  0  0  0  0
  2  1  1  0
  4  2  1  0
  7  3  1  0
  8  3  1  0
  9  8  1  0
 10  4  1  0
 11  8  1  0
 12  5  2  0
 12 11  1  0
 13 10  1  0
 14  6  1  0
 14 13  1  0
 15  3  1  0
 15  8  1  0
 16 12  1  0
 16 14  1  0
M  END
>  <ID>  (1) 
conformer_0

$$$$
