
     RDKit          3D

 13 13  0  0  0  0  0  0  0  0999 V2000
   50.3461   10.3927   81.1545 C   0  0  0  0  0  0  0  0  0  0  0  0
   51.2114   11.3459   81.6493 C   0  0  0  0  0  0  0  0  0  0  0  0
   54.7001   14.9003   82.5027 C   0  0  0  0  0  0  0  0  0  0  0  0
   52.4552   11.5865   81.0069 C   0  0  0  0  0  0  0  0  0  0  0  0
   55.3607   12.1874   81.4852 C   0  0  0  0  0  0  0  0  0  0  0  0
   55.5987   10.6954   81.4850 O   0  0  0  0  0  0  0  0  0  0  0  0
   54.7814   14.2569   83.4521 O   0  0  0  0  0  0  0  0  0  0  0  0
   52.0772   15.9031   83.4041 O   0  0  0  0  0  0  0  0  0  0  0  0
   54.3133   15.0747   81.8925 N   0  0  0  0  0  0  0  0  0  0  0  0
   53.9573   17.4756   82.7674 C   0  0  0  0  0  0  0  0  0  0  0  0
   54.0374   12.2374   80.7390 C   0  0  0  0  0  0  0  0  0  0  0  0
   52.8673   17.5623   83.8577 N   0  0  0  0  0  0  0  0  0  0  0  0
   52.8929   16.0490   83.1061 C   0  0  0  0  0  0  0  0  0  0  0  0
  2  1  1  0
  4  2  2  0
  5  3  1  0
  6  5  1  0
  7  3  1  0
  9  3  1  0
 11  4  2  0
 11  5  1  0
 12 10  1  0
 13  3  1  0
 13  8  1  0
 13 10  1  0
 13 12  1  0
M  END
>  <ID>  (1) 
conformer_0

$$$$
