
     RDKit          3D

 17 16  0  0  0  0  0  0  0  0999 V2000
   49.9787   11.0823   82.1719 C   0  0  0  0  0  0  0  0  0  0  0  0
   49.6600    9.7169   81.4560 C   0  0  0  0  0  0  0  0  0  0  0  0
   53.4302   17.5303   83.2700 C   0  0  0  0  0  0  0  0  0  0  0  0
   51.7797   11.7710   81.5771 C   0  0  0  0  0  0  0  0  0  0  0  0
   53.2751   15.9224   83.1751 C   0  0  0  0  0  0  0  0  0  0  0  0
   54.2331   17.8074   82.5829 C   0  0  0  0  0  0  0  0  0  0  0  0
   52.2068   15.4386   83.9378 O   0  0  0  0  0  0  0  0  0  0  0  0
   55.1984   14.1827   83.5565 O   0  0  0  0  0  0  0  0  0  0  0  0
   55.3206   11.1695   81.3682 O   0  0  0  0  0  0  0  0  0  0  0  0
   54.3905   15.2504   82.0852 N   0  0  0  0  0  0  0  0  0  0  0  0
   53.2487   11.8420   79.9521 C   0  0  0  0  0  0  0  0  0  0  0  0
   54.9842   14.5579   82.4722 C   0  0  0  0  0  0  0  0  0  0  0  0
   53.5477   12.6634   81.1183 C   0  0  0  0  0  0  0  0  0  0  0  0
   55.1808   12.4461   81.2936 C   0  0  0  0  0  0  0  0  0  0  0  0
   55.8407   13.3937   81.1706 C   0  0  0  0  0  0  0  0  0  0  0  0
   52.2358   17.2399   83.6182 O   0  0  0  0  0  0  0  0  0  0  0  0
   51.4163   10.7880   80.8843 C   0  0  0  0  0  0  0  0  0  0  0  0
  2  1  1  0
  5  3  1  0
  6  3  1  0
  7  5  2  0
 10  5  1  0
 12  8  2  0
 12 10  1  0
 13  4  1  0
 13 11  1  0
 14  9  1  0
 14 13  1  0
 15 12  1  0
 15 14  1  0
 16  3  1  0
 17  1  1  0
 17  4  1  0
M  END
>  <ID>  (1) 
conformer_0

$$$$
