
     RDKit          3D

 15 15  0  0  0  0  0  0  0  0999 V2000
   50.0933   11.2652   82.3145 C   0  0  0  0  0  0  0  0  0  0  0  0
   50.6226   10.3329   81.2150 C   0  0  0  0  0  0  0  0  0  0  0  0
   53.3460   16.0117   83.1801 C   0  0  1  0  0  0  0  0  0  0  0  0
   54.9130   14.5318   82.2263 C   0  0  2  0  0  0  0  0  0  0  0  0
   51.7367   11.3851   81.2364 C   0  0  0  0  0  0  0  0  0  0  0  0
   54.5272   17.5989   82.4323 C   0  0  0  0  0  0  0  0  0  0  0  0
   52.1984   16.0721   83.4970 O   0  0  0  0  0  0  0  0  0  0  0  0
   55.4445   11.2306   81.5708 O   0  0  0  0  0  0  0  0  0  0  0  0
   55.1331   13.9548   83.1110 O   0  0  0  0  0  0  0  0  0  0  0  0
   54.3324   15.1105   81.8257 N   0  0  0  0  0  0  0  0  0  0  0  0
   52.9676   18.6539   83.6638 O   0  0  0  0  0  0  0  0  0  0  0  0
   52.9059   11.5977   80.7958 C   0  0  0  0  0  0  0  0  0  0  0  0
   53.4834   17.6931   83.2817 C   0  0  0  0  0  0  0  0  0  0  0  0
   55.1059   12.3356   81.3906 C   0  0  0  0  0  0  0  0  0  0  0  0
   54.1957   12.7543   80.7782 C   0  0  0  0  0  0  0  0  0  0  0  0
  2  1  1  0
  5  1  1  0
  5  2  1  0
  3  7  1  6
  4  9  1  1
 10  3  1  0
 10  4  1  0
 12  5  1  0
 13  3  1  0
 13  6  2  3
 13 11  1  0
 14  4  1  0
 14  8  2  0
 15 12  1  0
 15 14  1  0
M  END
>  <ID>  (1) 
conformer_0

$$$$
