
     RDKit          3D

 15 14  0  0  0  0  0  0  0  0999 V2000
   49.8357   10.1261   81.5184 C   0  0  0  0  0  0  0  0  0  0  0  0
   51.1737   10.6692   80.8818 C   0  0  0  0  0  0  0  0  0  0  0  0
   53.5016   17.5778   83.1833 C   0  0  0  0  0  0  0  0  0  0  0  0
   53.1192   16.0553   83.2952 C   0  0  0  0  0  0  0  0  0  0  0  0
   50.2310   11.5863   82.3617 C   0  0  0  0  0  0  0  0  0  0  0  0
   52.0741   16.1545   83.7451 O   0  0  0  0  0  0  0  0  0  0  0  0
   55.3950   11.1012   81.3983 O   0  0  0  0  0  0  0  0  0  0  0  0
   54.5949   17.7104   82.4073 C   0  0  0  0  0  0  0  0  0  0  0  0
   54.2745   15.4281   81.9375 N   0  0  0  0  0  0  0  0  0  0  0  0
   54.7364   14.5506   83.3306 O   0  0  0  0  0  0  0  0  0  0  0  0
   52.1302   11.9038   81.3825 C   0  0  0  0  0  0  0  0  0  0  0  0
   55.0015   14.6444   82.3529 C   0  0  0  0  0  0  0  0  0  0  0  0
   53.1954   11.8263   80.3149 C   0  0  0  0  0  0  0  0  0  0  0  0
   55.0844   12.4823   81.4704 C   0  0  0  0  0  0  0  0  0  0  0  0
   54.9029   13.0137   80.8740 C   0  0  0  0  0  0  0  0  0  0  0  0
  2  1  1  0
  4  3  1  0
  5  1  1  0
  6  4  2  0
  8  3  1  0
 11  2  1  0
 12  4  1  0
 12  9  1  0
 12 10  1  0
 13 11  1  0
 14  7  1  0
 15 12  1  0
 15 13  1  0
 15 14  1  0
M  END
>  <ID>  (1) 
conformer_0

$$$$
