
     RDKit          3D

 13 13  0  0  0  0  0  0  0  0999 V2000
   50.3646   10.6708   81.5253 C   0  0  0  0  0  0  0  0  0  0  0  0
   50.9747   12.0542   82.2818 C   0  0  0  0  0  0  0  0  0  0  0  0
   53.6279   17.3582   82.9803 C   0  0  0  0  0  0  0  0  0  0  0  0
   51.7867   10.8628   80.6730 C   0  0  0  0  0  0  0  0  0  0  0  0
   52.0684   15.9415   83.4727 O   0  0  0  0  0  0  0  0  0  0  0  0
   53.7711   12.2473   80.5338 C   0  0  0  0  0  0  0  0  0  0  0  0
   55.4418   13.7818   82.0384 C   0  0  2  0  0  0  0  0  0  0  0  0
   55.2647   13.6355   83.1138 O   0  0  0  0  0  0  0  0  0  0  0  0
   54.1902   15.5138   82.0761 N   0  0  0  0  0  0  0  0  0  0  0  0
   54.3238   17.7321   82.8949 C   0  0  0  0  0  0  0  0  0  0  0  0
   53.1381   15.7225   83.1765 C   0  0  2  0  0  0  0  0  0  0  0  0
   55.3332   13.2096   80.7638 C   0  0  0  0  0  0  0  0  0  0  0  0
   52.6507   11.9488   81.3227 C   0  0  0  0  0  0  0  0  0  0  0  0
  2  1  1  0
  4  1  1  0
  7  8  1  1
 10  3  2  3
 11  3  1  0
 11  5  1  0
 11  7  1  0
 11  9  1  1
 12  6  1  0
 12  7  1  0
 13  2  1  0
 13  4  1  0
 13  6  1  0
M  END
>  <ID>  (1) 
conformer_0

$$$$
