
     RDKit          3D

 13 12  0  0  0  0  0  0  0  0999 V2000
   50.5190   11.0029   81.7097 C   0  0  0  0  0  0  0  0  0  0  0  0
   51.8774   11.5803   81.4224 C   0  0  0  0  0  0  0  0  0  0  0  0
   53.4341   15.4990   82.7665 C   0  0  0  0  0  0  0  0  0  0  0  0
   49.3833   10.6941   82.2859 C   0  0  0  0  0  0  0  0  0  0  0  0
   55.0687   13.0027   81.6880 C   0  0  0  0  0  0  0  0  0  0  0  0
   53.9590   14.9115   81.8039 N   0  0  0  0  0  0  0  0  0  0  0  0
   54.4609   17.7201   82.5743 C   0  0  0  0  0  0  0  0  0  0  0  0
   52.1043   15.7422   83.5985 O   0  0  0  0  0  0  0  0  0  0  0  0
   55.2301   13.7086   83.0596 O   0  0  0  0  0  0  0  0  0  0  0  0
   55.7291   10.9849   81.5666 O   0  0  0  0  0  0  0  0  0  0  0  0
   52.9455   11.8244   80.9276 C   0  0  0  0  0  0  0  0  0  0  0  0
   54.6998   12.5414   80.8361 C   0  0  0  0  0  0  0  0  0  0  0  0
   53.4015   17.3113   83.1142 C   0  0  0  0  0  0  0  0  0  0  0  0
  2  1  1  0
  4  1  1  0
  6  3  1  0
  6  5  1  0
  8  3  2  0
  9  5  1  0
 11  2  3  0
 12  5  1  0
 12 10  1  0
 12 11  1  0
 13  3  1  0
 13  7  1  0
M  END
>  <ID>  (1) 
conformer_0

$$$$
