
     RDKit          3D

 16 16  0  0  0  0  0  0  0  0999 V2000
   49.6874   11.2263   82.5762 C   0  0  0  0  0  0  0  0  0  0  0  0
   50.5434   10.4418   81.4321 C   0  0  0  0  0  0  0  0  0  0  0  0
   53.7691   17.5843   82.8064 C   0  0  0  0  0  0  0  0  0  0  0  0
   52.5482   11.3165   81.0643 C   0  0  0  0  0  0  0  0  0  0  0  0
   54.6259   17.8312   82.3603 C   0  0  0  0  0  0  0  0  0  0  0  0
   55.6519   10.7971   81.3064 O   0  0  0  0  0  0  0  0  0  0  0  0
   52.1525   15.1414   83.0920 O   0  0  0  0  0  0  0  0  0  0  0  0
   55.1019   14.5544   82.2662 C   0  0  0  0  0  0  0  0  0  0  0  0
   53.7775   12.0442   81.0347 C   0  0  0  0  0  0  0  0  0  0  0  0
   54.9616   14.3318   83.1645 O   0  0  0  0  0  0  0  0  0  0  0  0
   55.1891   11.8505   81.5293 C   0  0  0  0  0  0  0  0  0  0  0  0
   54.3232   15.5828   81.8156 N   0  0  0  0  0  0  0  0  0  0  0  0
   55.2347   13.4131   81.1675 C   0  0  0  0  0  0  0  0  0  0  0  0
   52.9239   16.0563   82.9851 C   0  0  0  0  0  0  0  0  0  0  0  0
   52.4223   16.9880   83.4070 O   0  0  0  0  0  0  0  0  0  0  0  0
   51.4188   11.6695   81.9380 C   0  0  0  0  0  0  0  0  0  0  0  0
  2  1  1  0
  5  3  3  0
  9  4  1  0
 10  8  2  0
 11  6  1  0
 11  9  1  0
 12  8  1  0
 13  8  1  0
 13 11  1  0
 14  7  2  0
 14 12  1  0
 15  3  1  0
 15 14  1  0
 16  1  1  0
 16  2  1  0
 16  4  1  0
M  END
>  <ID>  (1) 
conformer_0

$$$$
