
     RDKit          3D

 14 13  0  0  0  0  0  0  0  0999 V2000
   49.5431   10.0991   81.9407 C   0  0  0  0  0  0  0  0  0  0  0  0
   50.3647   11.0866   82.0207 C   0  0  0  0  0  0  0  0  0  0  0  0
   53.3532   17.4018   83.1594 C   0  0  0  0  0  0  0  0  0  0  0  0
   51.7546   11.1552   81.5057 C   0  0  0  0  0  0  0  0  0  0  0  0
   54.2306   15.5386   82.4996 C   0  0  1  0  0  0  0  0  0  0  0  0
   52.2676   16.1950   83.4544 O   0  0  0  0  0  0  0  0  0  0  0  0
   54.4901   17.6616   82.4780 C   0  0  0  0  0  0  0  0  0  0  0  0
   54.3154   15.2802   81.8687 N   0  0  0  0  0  0  0  0  0  0  0  0
   53.5500   18.4881   84.1368 O   0  0  0  0  0  0  0  0  0  0  0  0
   52.6953   12.0054   81.1922 C   0  0  0  0  0  0  0  0  0  0  0  0
   55.2081   10.9397   81.5439 O   0  0  0  0  0  0  0  0  0  0  0  0
   54.7585   14.0086   83.1742 O   0  0  0  0  0  0  0  0  0  0  0  0
   55.3697   13.2118   81.7805 C   0  0  0  0  0  0  0  0  0  0  0  0
   54.4594   12.7303   80.9711 C   0  0  2  0  0  0  0  0  0  0  0  0
  2  1  2  3
  4  2  1  0
  6  3  2  0
  7  3  1  0
  7  5  1  0
  5  8  1  6
  9  3  1  0
 10  4  1  0
 12  5  1  0
 13 12  1  0
 14 10  1  0
 14 11  1  1
 14 13  1  0
M  END
>  <ID>  (1) 
conformer_0

$$$$
