
     RDKit          3D

 12 11  0  0  0  0  0  0  0  0999 V2000
   51.0943   10.8796   81.5461 C   0  0  0  0  0  0  0  0  0  0  0  0
   49.9742   11.0185   82.2502 C   0  0  0  0  0  0  0  0  0  0  0  0
   53.3596   17.1405   83.1101 C   0  0  1  0  0  0  0  0  0  0  0  0
   52.0540   11.8036   81.3485 C   0  0  0  0  0  0  0  0  0  0  0  0
   54.5974   17.6856   82.4061 C   0  0  0  0  0  0  0  0  0  0  0  0
   55.2839   12.9235   81.5548 C   0  0  0  0  0  0  0  0  0  0  0  0
   54.5867   15.1159   81.7249 N   0  0  0  0  0  0  0  0  0  0  0  0
   55.1316   13.4352   83.0887 O   0  0  0  0  0  0  0  0  0  0  0  0
   51.9030   15.9707   83.0816 O   0  0  0  0  0  0  0  0  0  0  0  0
   54.9466   11.0986   81.7504 O   0  0  0  0  0  0  0  0  0  0  0  0
   53.6937   12.3408   80.7135 C   0  0  0  0  0  0  0  0  0  0  0  0
   54.1467   15.5535   82.6583 C   0  0  0  0  0  0  0  0  0  0  0  0
  2  1  2  3
  4  1  1  0
  3  5  1  6
  7  6  1  0
  8  6  1  0
  9  3  1  0
 10  6  1  0
 11  4  1  0
 11  6  1  0
 12  3  1  0
 12  7  1  0
M  END
>  <ID>  (1) 
conformer_0

$$$$
