
     RDKit          3D

 12 11  0  0  0  0  0  0  0  0999 V2000
   49.8371   10.4754   81.6865 C   0  0  0  0  0  0  0  0  0  0  0  0
   50.9439   10.8835   81.2710 C   0  0  0  0  0  0  0  0  0  0  0  0
   53.4295   17.0508   83.0371 C   0  0  0  0  0  0  0  0  0  0  0  0
   54.4221   17.5211   82.3484 C   0  0  0  0  0  0  0  0  0  0  0  0
   52.2897   11.6119   81.0402 C   0  0  0  0  0  0  0  0  0  0  0  0
   54.1936   14.9824   82.6172 C   0  0  0  0  0  0  0  0  0  0  0  0
   55.5650   10.9327   81.3138 O   0  0  0  0  0  0  0  0  0  0  0  0
   52.2138   16.1429   83.6383 O   0  0  0  0  0  0  0  0  0  0  0  0
   54.3086   15.0273   82.1886 N   0  0  0  0  0  0  0  0  0  0  0  0
   55.1261   13.3250   83.0694 O   0  0  0  0  0  0  0  0  0  0  0  0
   55.2271   12.5508   81.5010 C   0  0  0  0  0  0  0  0  0  0  0  0
   53.8100   12.4158   80.9248 C   0  0  0  0  0  0  0  0  0  0  0  0
  2  1  3  0
  4  3  1  0
  5  2  1  0
  6  3  1  0
  8  3  1  0
  9  6  1  0
 10  6  1  0
 11  7  1  0
 11 10  1  0
 12  5  1  0
 12 11  1  0
M  END
>  <ID>  (1) 
conformer_0

$$$$
