
     RDKit          3D

 17 18  0  0  0  0  0  0  0  0999 V2000
   49.6735   11.1321   82.4946 C   0  0  0  0  0  0  0  0  0  0  0  0
   50.3256   10.1022   81.1715 C   0  0  0  0  0  0  0  0  0  0  0  0
   52.9425   15.5277   83.0627 C   0  0  0  0  0  0  0  0  0  0  0  0
   51.2007   11.5041   81.7146 C   0  0  0  0  0  0  0  0  0  0  0  0
   55.0445   14.2158   82.2201 C   0  0  0  0  0  0  0  0  0  0  0  0
   55.4170   10.9220   81.3354 O   0  0  0  0  0  0  0  0  0  0  0  0
   52.0785   15.0025   83.9109 O   0  0  0  0  0  0  0  0  0  0  0  0
   54.4076   17.9036   82.3809 C   0  0  0  0  0  0  0  0  0  0  0  0
   53.9394   15.0163   82.0051 N   0  0  0  0  0  0  0  0  0  0  0  0
   52.2239   11.2386   80.8225 C   0  0  0  0  0  0  0  0  0  0  0  0
   53.7382   18.3886   84.2876 O   0  0  0  0  0  0  0  0  0  0  0  0
   53.6796   17.2002   83.0647 C   0  0  0  0  0  0  0  0  0  0  0  0
   54.9818   12.0729   81.2413 C   0  0  0  0  0  0  0  0  0  0  0  0
   55.3870   13.2356   80.9576 C   0  0  0  0  0  0  0  0  0  0  0  0
   54.9854   14.3291   83.2082 O   0  0  0  0  0  0  0  0  0  0  0  0
   52.3484   16.8837   83.4218 O   0  0  0  0  0  0  0  0  0  0  0  0
   53.4797   12.2408   80.6409 C   0  0  0  0  0  0  0  0  0  0  0  0
  2  1  1  0
  4  1  1  0
  4  2  1  0
  7  3  1  0
  9  3  1  0
  9  5  1  0
 10  4  1  0
 12  3  1  0
 12  8  1  0
 12 11  1  0
 13  6  2  0
 14  5  1  0
 14 13  1  0
 15  5  2  0
 16  3  1  0
 16 12  1  0
 17 10  1  0
 17 13  1  0
M  END
>  <ID>  (1) 
conformer_0

$$$$
