
     RDKit          3D

 15 14  0  0  0  0  0  0  0  0999 V2000
   50.0773    9.7835   81.2382 C   0  0  0  0  0  0  0  0  0  0  0  0
   49.7890   10.9456   82.2077 C   0  0  0  0  0  0  0  0  0  0  0  0
   53.5669   16.2016   82.7686 C   0  0  0  0  0  0  0  0  0  0  0  0
   54.8338   14.4144   82.0794 C   0  0  0  0  0  0  0  0  0  0  0  0
   51.6274   10.8012   81.1482 C   0  0  0  0  0  0  0  0  0  0  0  0
   55.8856   13.2632   80.7280 C   0  0  0  0  0  0  0  0  0  0  0  0
   55.2801   11.4134   82.0502 O   0  0  0  0  0  0  0  0  0  0  0  0
   52.1936   16.0222   83.5915 O   0  0  0  0  0  0  0  0  0  0  0  0
   54.3768   17.7446   82.4651 C   0  0  0  0  0  0  0  0  0  0  0  0
   54.1601   14.8732   81.7399 N   0  0  0  0  0  0  0  0  0  0  0  0
   53.3944   17.6478   83.2295 C   0  0  0  0  0  0  0  0  0  0  0  0
   51.9384   11.8300   81.6332 C   0  0  0  0  0  0  0  0  0  0  0  0
   55.0028   14.0357   83.1073 O   0  0  0  0  0  0  0  0  0  0  0  0
   53.5909   12.1086   80.7123 C   0  0  0  0  0  0  0  0  0  0  0  0
   54.9358   12.3104   81.4665 C   0  0  0  0  0  0  0  0  0  0  0  0
  2  1  1  0
  5  1  1  0
  6  4  1  0
  8  3  2  0
 10  3  1  0
 10  4  1  0
 11  3  1  0
 11  9  1  0
 12  5  1  0
 13  4  2  0
 14 12  1  0
 15  6  1  0
 15  7  2  0
 15 14  1  0
M  END
>  <ID>  (1) 
conformer_0

$$$$
