
     RDKit          3D

 15 14  0  0  0  0  0  0  0  0999 V2000
   49.6959   11.1173   82.3448 C   0  0  0  0  0  0  0  0  0  0  0  0
   50.8417   10.3510   81.9650 C   0  0  0  0  0  0  0  0  0  0  0  0
   52.9476   15.5935   82.8532 C   0  0  0  0  0  0  0  0  0  0  0  0
   54.5598   17.7530   82.4344 C   0  0  0  0  0  0  0  0  0  0  0  0
   51.8063   11.3870   81.5035 C   0  0  0  0  0  0  0  0  0  0  0  0
   55.2059   14.1328   82.0727 C   0  0  2  0  0  0  0  0  0  0  0  0
   55.4287   13.8664   83.1337 O   0  0  0  0  0  0  0  0  0  0  0  0
   51.7181   14.4704   82.8775 O   0  0  0  0  0  0  0  0  0  0  0  0
   55.1950   11.0184   81.2289 O   0  0  0  0  0  0  0  0  0  0  0  0
   53.9040   15.1259   81.8421 N   0  0  0  0  0  0  0  0  0  0  0  0
   52.7806   11.8340   80.8327 C   0  0  0  0  0  0  0  0  0  0  0  0
   53.6202   17.4050   83.1703 C   0  0  0  0  0  0  0  0  0  0  0  0
   54.6163   12.7893   80.8845 C   0  0  2  0  0  0  0  0  0  0  0  0
   54.9793   12.1724   80.9558 C   0  0  0  0  0  0  0  0  0  0  0  0
   52.2363   16.4176   83.3835 O   0  0  0  0  0  0  0  0  0  0  0  0
  2  1  1  0
  5  2  1  0
  6  7  1  1
  8  3  2  0
 10  3  1  0
 10  6  1  0
 11  5  1  0
 12  4  2  3
 13  6  1  0
 13 11  1  1
 14  9  1  0
 14 13  1  0
 15  3  1  0
 15 12  1  0
M  END
>  <ID>  (1) 
conformer_0

$$$$
