
     RDKit          3D

 16 16  0  0  0  0  0  0  0  0999 V2000
   49.8571   11.0496   82.2209 C   0  0  0  0  0  0  0  0  0  0  0  0
   50.4932   10.1361   80.8906 C   0  0  0  0  0  0  0  0  0  0  0  0
   53.0594   16.0901   83.1353 C   0  0  0  0  0  0  0  0  0  0  0  0
   51.2963   11.6129   81.8860 C   0  0  0  0  0  0  0  0  0  0  0  0
   54.7623   14.7448   82.5157 C   0  0  0  0  0  0  0  0  0  0  0  0
   52.1267   16.1161   83.7200 O   0  0  0  0  0  0  0  0  0  0  0  0
   55.1055   13.9794   83.3220 O   0  0  0  0  0  0  0  0  0  0  0  0
   55.3063   11.3513   81.7992 O   0  0  0  0  0  0  0  0  0  0  0  0
   54.2301   15.3228   81.9567 N   0  0  0  0  0  0  0  0  0  0  0  0
   53.5256   18.4228   84.0396 O   0  0  0  0  0  0  0  0  0  0  0  0
   54.4500   17.8045   82.4193 C   0  0  0  0  0  0  0  0  0  0  0  0
   52.3511   11.2994   80.8151 C   0  0  0  0  0  0  0  0  0  0  0  0
   53.4895   17.6799   83.0410 C   0  0  0  0  0  0  0  0  0  0  0  0
   53.3260   12.1186   80.6975 C   0  0  0  0  0  0  0  0  0  0  0  0
   55.2614   12.7198   81.5674 C   0  0  0  0  0  0  0  0  0  0  0  0
   55.1871   12.9595   80.8215 C   0  0  0  0  0  0  0  0  0  0  0  0
  2  1  1  0
  4  1  1  0
  4  2  1  0
  6  3  2  0
  7  5  1  0
  9  3  1  0
  9  5  1  0
 12  4  1  0
 13  3  1  0
 13 10  1  0
 13 11  1  0
 14 12  1  0
 15  7  1  0
 15  8  2  0
 16 14  1  0
 16 15  1  0
M  END
>  <ID>  (1) 
conformer_0

$$$$
