
     RDKit          3D

 15 14  0  0  0  0  0  0  0  0999 V2000
   52.7250   11.6533   80.4403 C   0  0  0  0  0  0  0  0  0  0  0  0
   51.3328   10.9236   80.9585 C   0  0  0  0  0  0  0  0  0  0  0  0
   54.7918   14.5227   82.5480 C   0  0  0  0  0  0  0  0  0  0  0  0
   54.1986   17.5487   82.3701 C   0  0  0  0  0  0  0  0  0  0  0  0
   50.2215   10.4704   81.3542 C   0  0  0  0  0  0  0  0  0  0  0  0
   55.2981   12.2321   81.6442 C   0  0  0  0  0  0  0  0  0  0  0  0
   52.2421   15.4734   83.6494 O   0  0  0  0  0  0  0  0  0  0  0  0
   55.2515   13.6687   83.1749 O   0  0  0  0  0  0  0  0  0  0  0  0
   55.7966   11.0441   81.6009 O   0  0  0  0  0  0  0  0  0  0  0  0
   49.8917   11.4443   82.5805 C   0  0  0  0  0  0  0  0  0  0  0  0
   54.3501   14.8480   81.9034 N   0  0  0  0  0  0  0  0  0  0  0  0
   53.5839   17.5149   83.0859 C   0  0  0  0  0  0  0  0  0  0  0  0
   53.3420   11.7926   81.2664 C   0  0  0  0  0  0  0  0  0  0  0  0
   52.9542   15.7733   83.0562 C   0  0  0  0  0  0  0  0  0  0  0  0
   55.1188   13.0588   80.8885 C   0  0  0  0  0  0  0  0  0  0  0  0
  2  1  1  0
  5  2  1  0
  8  3  1  0
  8  6  1  0
  9  6  1  0
 10  5  1  0
 11  3  1  0
 12  4  1  0
 13  1  1  0
 13  6  1  0
 14  7  2  0
 14 11  1  0
 14 12  1  0
 15  6  1  0
M  END
>  <ID>  (1) 
conformer_0

$$$$
