
     RDKit          3D

 16 16  0  0  0  0  0  0  0  0999 V2000
   52.6455   11.5090   80.2190 C   0  0  0  0  0  0  0  0  0  0  0  0
   52.0492   11.3879   81.4337 C   0  0  0  0  0  0  0  0  0  0  0  0
   53.2960   17.6513   83.3208 C   0  0  0  0  0  0  0  0  0  0  0  0
   54.9970   12.2648   81.4097 C   0  0  0  0  0  0  0  0  0  0  0  0
   55.4689   13.8423   83.3517 O   0  0  0  0  0  0  0  0  0  0  0  0
   52.0510   16.0272   83.6661 O   0  0  0  0  0  0  0  0  0  0  0  0
   50.8072   10.5624   81.1666 C   0  0  0  0  0  0  0  0  0  0  0  0
   54.3088   15.0692   82.1574 N   0  0  0  0  0  0  0  0  0  0  0  0
   55.2874   11.3420   81.7988 O   0  0  0  0  0  0  0  0  0  0  0  0
   54.3454   17.3472   82.2141 C   0  0  0  0  0  0  0  0  0  0  0  0
   53.7488   18.3214   84.1352 O   0  0  0  0  0  0  0  0  0  0  0  0
   53.6362   16.1158   82.8604 C   0  0  0  0  0  0  0  0  0  0  0  0
   49.9261   11.1269   82.2007 C   0  0  0  0  0  0  0  0  0  0  0  0
   55.0743   14.2215   82.3904 C   0  0  0  0  0  0  0  0  0  0  0  0
   54.1010   12.5574   80.9100 C   0  0  0  0  0  0  0  0  0  0  0  0
   52.1907   17.8634   83.4440 O   0  0  0  0  0  0  0  0  0  0  0  0
  2  1  1  0
  7  2  1  0
  9  4  2  0
 10  3  1  0
 11  3  1  0
 12  3  1  0
 12  6  1  0
 12  8  1  0
 12 10  1  0
 13  7  1  0
 14  4  1  0
 14  5  2  0
 14  8  1  0
 15  1  1  0
 15  4  1  0
 16  3  1  0
M  END
>  <ID>  (1) 
conformer_0

$$$$
