
     RDKit          3D

 17 18  0  0  0  0  0  0  0  0999 V2000
   49.3259   10.6825   82.3659 C   0  0  0  0  0  0  0  0  0  0  0  0
   50.2933    9.8136   81.2686 C   0  0  0  0  0  0  0  0  0  0  0  0
   54.2408   12.5937   80.7386 C   0  0  0  0  0  0  0  0  0  0  0  0
   53.7387   17.5633   82.9736 C   0  0  0  0  0  0  0  0  0  0  0  0
   54.6859   14.6168   82.5034 C   0  0  0  0  0  0  0  0  0  0  0  0
   54.5691   17.9848   82.3088 C   0  0  0  0  0  0  0  0  0  0  0  0
   52.1028   15.5895   83.7563 O   0  0  0  0  0  0  0  0  0  0  0  0
   55.3181   14.0021   83.2355 O   0  0  0  0  0  0  0  0  0  0  0  0
   51.9256   11.0227   80.7483 C   0  0  0  0  0  0  0  0  0  0  0  0
   54.0533   15.2264   82.0412 N   0  0  0  0  0  0  0  0  0  0  0  0
   55.5038   10.6995   81.3011 O   0  0  0  0  0  0  0  0  0  0  0  0
   53.1637   11.4929   81.3099 C   0  0  0  0  0  0  0  0  0  0  0  0
   55.2192   12.4031   81.6152 C   0  0  0  0  0  0  0  0  0  0  0  0
   52.8580   15.9614   83.0860 C   0  0  0  0  0  0  0  0  0  0  0  0
   52.3816   17.3824   83.2898 O   0  0  0  0  0  0  0  0  0  0  0  0
   55.7585   13.2786   81.0122 C   0  0  0  0  0  0  0  0  0  0  0  0
   50.9837   11.1891   81.8925 C   0  0  0  0  0  0  0  0  0  0  0  0
  2  1  1  0
  6  4  1  0
  8  5  2  0
 10  5  1  0
 12  3  1  0
 12  9  1  0
 13  3  1  0
 13 11  1  0
 14  4  1  0
 14  7  1  0
 14 10  1  0
 15  4  1  0
 15 14  1  0
 16  5  1  0
 16 13  1  0
 17  1  1  0
 17  2  1  0
 17  9  1  0
M  END
>  <ID>  (1) 
conformer_0

$$$$
