
     RDKit          3D

 16 17  0  0  0  0  0  0  0  0999 V2000
   50.1056    9.9978   81.2253 C   0  0  0  0  0  0  0  0  0  0  0  0
   54.1827   16.8642   82.7731 C   0  0  0  0  0  0  0  0  0  0  0  0
   51.8870   11.9814   81.7477 C   0  0  0  0  0  0  0  0  0  0  0  0
   51.8809   10.9138   80.8623 C   0  0  0  0  0  0  0  0  0  0  0  0
   53.3209   17.8402   83.4763 C   0  0  0  0  0  0  0  0  0  0  0  0
   53.6832   11.9128   80.7406 C   0  0  0  0  0  0  0  0  0  0  0  0
   52.2187   16.6037   83.5742 O   0  0  0  0  0  0  0  0  0  0  0  0
   55.0081   13.9066   83.1420 O   0  0  0  0  0  0  0  0  0  0  0  0
   55.5681   10.5941   81.3778 O   0  0  0  0  0  0  0  0  0  0  0  0
   52.8760   14.4056   81.9974 N   0  0  0  0  0  0  0  0  0  0  0  0
   52.7511   15.5615   82.9911 C   0  0  0  0  0  0  0  0  0  0  0  0
   55.1963   11.7390   81.4063 C   0  0  0  0  0  0  0  0  0  0  0  0
   55.4137   12.9551   80.9298 C   0  0  0  0  0  0  0  0  0  0  0  0
   50.3682   11.2042   82.1808 C   0  0  0  0  0  0  0  0  0  0  0  0
   54.6721   15.4941   81.7591 N   0  0  0  0  0  0  0  0  0  0  0  0
   54.5498   14.1623   82.0932 C   0  0  0  0  0  0  0  0  0  0  0  0
  4  3  1  0
  5  2  1  0
  6  3  1  0
  7  5  1  0
 11  2  1  0
 11  7  1  0
 11 10  1  0
 12  6  1  0
 12  9  1  0
 13 12  1  0
 14  1  1  0
 14  3  1  0
 15  2  1  0
 16  8  1  0
 16 10  1  0
 16 13  1  0
 16 15  1  0
M  END
>  <ID>  (1) 
conformer_0

$$$$
