
     RDKit          3D

 16 17  0  0  0  0  0  0  0  0999 V2000
   50.7854    9.8030   82.3463 C   0  0  0  0  0  0  0  0  0  0  0  0
   50.2689   10.3964   81.3079 C   0  0  0  0  0  0  0  0  0  0  0  0
   53.7177   17.2707   82.9078 C   0  0  0  0  0  0  0  0  0  0  0  0
   51.3738   12.1581   81.8767 C   0  0  0  0  0  0  0  0  0  0  0  0
   54.1558   17.9436   82.6865 C   0  0  0  0  0  0  0  0  0  0  0  0
   55.1122   11.2038   81.7231 O   0  0  0  0  0  0  0  0  0  0  0  0
   54.9040   14.3203   81.8524 C   0  0  0  0  0  0  0  0  0  0  0  0
   51.9764   16.7434   83.3098 O   0  0  0  0  0  0  0  0  0  0  0  0
   54.1547   15.5505   81.7992 N   0  0  0  0  0  0  0  0  0  0  0  0
   54.7417   13.9551   82.8932 O   0  0  0  0  0  0  0  0  0  0  0  0
   52.2427   11.3697   81.2738 C   0  0  0  0  0  0  0  0  0  0  0  0
   54.8243   12.0765   81.3487 C   0  0  0  0  0  0  0  0  0  0  0  0
   52.8683   15.6802   82.9310 C   0  0  1  0  0  0  0  0  0  0  0  0
   53.4510   12.4768   80.7657 C   0  0  1  0  0  0  0  0  0  0  0  0
   52.2384   14.9471   83.4530 O   0  0  0  0  0  0  0  0  0  0  0  0
   55.0646   13.3789   80.4222 C   0  0  1  0  0  0  0  0  0  0  0  0
  2  1  1  0
  4  2  1  0
  5  3  2  3
  8  3  1  0
  9  7  1  0
 10  7  2  0
 11  4  1  0
 12  6  2  0
 13  3  1  0
 13  8  1  0
 13  9  1  0
 14 11  1  6
 14 12  1  0
 13 15  1  1
 16  7  1  1
 16 12  1  0
 16 14  1  0
M  END
>  <ID>  (1) 
conformer_0

$$$$
