
     RDKit          3D

 16 15  0  0  0  0  0  0  0  0999 V2000
   49.8463   10.4068   81.5153 C   0  0  0  0  0  0  0  0  0  0  0  0
   51.3567   11.6492   81.9832 C   0  0  0  0  0  0  0  0  0  0  0  0
   53.6211   17.4347   83.1657 C   0  0  0  0  0  0  0  0  0  0  0  0
   52.9210   11.6702   80.5937 C   0  0  0  0  0  0  0  0  0  0  0  0
   55.2206   14.1122   83.2513 O   0  0  0  0  0  0  0  0  0  0  0  0
   52.0400   15.5671   83.4263 O   0  0  0  0  0  0  0  0  0  0  0  0
   53.0518   15.6849   83.0127 C   0  0  0  0  0  0  0  0  0  0  0  0
   54.0286   17.9301   82.8279 C   0  0  0  0  0  0  0  0  0  0  0  0
   53.8788   12.0557   81.2310 C   0  0  0  0  0  0  0  0  0  0  0  0
   53.9603   15.4975   82.1751 N   0  0  0  0  0  0  0  0  0  0  0  0
   53.3986   18.3108   84.3686 O   0  0  0  0  0  0  0  0  0  0  0  0
   54.8999   14.6112   82.5393 C   0  0  0  0  0  0  0  0  0  0  0  0
   55.6633   10.9823   81.4923 O   0  0  0  0  0  0  0  0  0  0  0  0
   55.3173   12.0422   81.6096 C   0  0  1  0  0  0  0  0  0  0  0  0
   55.4244   13.2087   81.1951 C   0  0  0  0  0  0  0  0  0  0  0  0
   51.3170   10.8153   80.8777 C   0  0  0  0  0  0  0  0  0  0  0  0
  7  3  1  0
  7  6  2  0
  8  3  2  3
  9  4  1  0
 10  7  1  0
 11  3  1  0
 12  5  2  0
 12 10  1  0
 14  9  1  0
 14 13  1  6
 15 12  1  0
 15 14  1  0
 16  1  1  0
 16  2  1  0
 16  4  1  0
M  END
>  <ID>  (1) 
conformer_0

$$$$
