
     RDKit          3D

 13 12  0  0  0  0  0  0  0  0999 V2000
   50.8169   10.3166   80.8971 C   0  0  0  0  0  0  0  0  0  0  0  0
   49.9555   10.4461   81.6615 C   0  0  0  0  0  0  0  0  0  0  0  0
   54.5004   17.6961   82.5097 C   0  0  0  0  0  0  0  0  0  0  0  0
   53.3031   17.4204   83.3206 C   0  0  0  0  0  0  0  0  0  0  0  0
   51.9391   11.5703   81.6128 C   0  0  0  0  0  0  0  0  0  0  0  0
   53.9960   15.5278   82.7260 C   0  0  0  0  0  0  0  0  0  0  0  0
   55.5211   10.9137   81.4064 O   0  0  0  0  0  0  0  0  0  0  0  0
   54.7470   14.0847   83.2180 O   0  0  0  0  0  0  0  0  0  0  0  0
   52.3245   16.4392   83.6412 O   0  0  0  0  0  0  0  0  0  0  0  0
   54.6208   15.0710   81.7361 N   0  0  0  0  0  0  0  0  0  0  0  0
   55.1513   13.0478   81.7618 C   0  0  0  0  0  0  0  0  0  0  0  0
   52.8602   11.6743   80.8270 C   0  0  0  0  0  0  0  0  0  0  0  0
   54.3417   12.5701   80.9125 C   0  0  0  0  0  0  0  0  0  0  0  0
  2  1  1  0
  4  3  1  0
  5  1  1  0
  6  4  1  0
  8  6  1  0
  9  4  1  0
 10  6  1  0
 11  8  1  0
 12  5  1  0
 13  7  1  0
 13 11  1  0
 13 12  1  0
M  END
>  <ID>  (1) 
conformer_0

$$$$
