
     RDKit          3D

 15 14  0  0  0  0  0  0  0  0999 V2000
   50.2657   10.0370   80.9980 C   0  0  0  0  0  0  0  0  0  0  0  0
   50.7102   11.2413   81.8991 C   0  0  0  0  0  0  0  0  0  0  0  0
   55.3026   14.0793   82.1711 C   0  0  0  0  0  0  0  0  0  0  0  0
   54.2836   17.6259   82.4462 C   0  0  0  0  0  0  0  0  0  0  0  0
   51.8732   11.1968   80.7382 C   0  0  0  0  0  0  0  0  0  0  0  0
   55.0344   12.0662   81.2499 C   0  0  0  0  0  0  0  0  0  0  0  0
   52.0920   15.8011   83.6835 O   0  0  0  0  0  0  0  0  0  0  0  0
   55.3620   13.7210   83.1066 O   0  0  0  0  0  0  0  0  0  0  0  0
   53.2021   17.8771   83.4932 C   0  0  0  0  0  0  0  0  0  0  0  0
   55.1326   11.2334   81.7376 O   0  0  0  0  0  0  0  0  0  0  0  0
   52.8162   11.8908   80.9711 C   0  0  0  0  0  0  0  0  0  0  0  0
   54.1648   15.0512   81.7682 N   0  0  0  0  0  0  0  0  0  0  0  0
   52.6954   15.5786   83.2987 C   0  0  0  0  0  0  0  0  0  0  0  0
   54.5381   12.8111   80.6641 C   0  0  0  0  0  0  0  0  0  0  0  0
   54.2390   16.3079   82.8140 C   0  0  0  0  0  0  0  0  0  0  0  0
  2  1  1  0
  5  2  1  0
  8  3  1  0
  9  4  1  0
 10  6  1  0
 11  5  1  0
 12  3  1  0
 13  7  2  0
 14  3  1  0
 14  6  1  0
 14 11  1  0
 15  4  1  0
 15 12  1  0
 15 13  1  0
M  END
>  <ID>  (1) 
conformer_0

$$$$
