
     RDKit          3D

 15 14  0  0  0  0  0  0  0  0999 V2000
   50.4632   10.2263   81.2513 C   0  0  0  0  0  0  0  0  0  0  0  0
   51.6390   11.2730   81.2997 C   0  0  0  0  0  0  0  0  0  0  0  0
   53.0562   16.2301   83.2224 C   0  0  0  0  0  0  0  0  0  0  0  0
   52.7597   11.7641   81.0223 C   0  0  0  0  0  0  0  0  0  0  0  0
   54.6777   14.7779   82.4032 C   0  0  1  0  0  0  0  0  0  0  0  0
   52.1124   15.6922   83.8625 O   0  0  0  0  0  0  0  0  0  0  0  0
   55.5352   11.1590   81.6355 O   0  0  0  0  0  0  0  0  0  0  0  0
   54.5393   17.7343   82.5263 C   0  0  0  0  0  0  0  0  0  0  0  0
   54.6131   14.9398   81.7392 N   0  0  0  0  0  0  0  0  0  0  0  0
   52.3851   18.0528   83.4706 O   0  0  0  0  0  0  0  0  0  0  0  0
   49.8115   10.7818   82.4611 C   0  0  0  0  0  0  0  0  0  0  0  0
   53.6428   17.6460   83.0862 C   0  0  0  0  0  0  0  0  0  0  0  0
   55.1608   13.7637   83.1784 O   0  0  0  0  0  0  0  0  0  0  0  0
   54.2646   12.6798   80.7553 C   0  0  0  0  0  0  0  0  0  0  0  0
   55.2021   12.6364   81.5150 C   0  0  1  0  0  0  0  0  0  0  0  0
  2  1  1  0
  4  2  3  0
  5  3  1  0
  6  3  2  0
  5  9  1  1
 11  1  1  0
 12  3  1  0
 12  8  2  3
 12 10  1  0
 13  5  1  0
 14  4  1  0
 15  5  1  0
 15  7  1  1
 15 14  1  0
M  END
>  <ID>  (1) 
conformer_0

$$$$
