
     RDKit          3D

 17 20  0  0  0  0  0  0  0  0999 V2000
   49.3766   11.2020   82.6222 C   0  0  0  0  0  0  0  0  0  0  0  0
   51.5951   11.1092   80.7599 C   0  0  0  0  0  0  0  0  0  0  0  0
   53.8514   17.8766   83.3271 C   0  0  0  0  0  0  0  0  0  0  0  0
   53.0303   11.5772   81.2316 C   0  0  0  0  0  0  0  0  0  0  0  0
   53.0163   17.4599   83.4335 C   0  0  0  0  0  0  0  0  0  0  0  0
   53.8180   16.0293   82.6772 C   0  0  0  0  0  0  0  0  0  0  0  0
   52.1502   16.0666   83.5395 O   0  0  0  0  0  0  0  0  0  0  0  0
   53.8484   12.6172   80.8122 C   0  0  0  0  0  0  0  0  0  0  0  0
   55.1010   14.0637   83.2141 O   0  0  0  0  0  0  0  0  0  0  0  0
   55.5211   11.0808   81.6393 O   0  0  0  0  0  0  0  0  0  0  0  0
   55.0179   11.7013   81.5602 C   0  0  0  0  0  0  0  0  0  0  0  0
   54.3565   15.4405   81.7814 N   0  0  0  0  0  0  0  0  0  0  0  0
   55.4476   13.4551   81.1051 C   0  0  0  0  0  0  0  0  0  0  0  0
   51.0533   11.7408   82.0141 C   0  0  0  0  0  0  0  0  0  0  0  0
   54.4941   17.6522   81.9915 C   0  0  0  0  0  0  0  0  0  0  0  0
   55.1165   14.1805   82.2415 C   0  0  0  0  0  0  0  0  0  0  0  0
   49.9759   10.2644   81.3791 C   0  0  0  0  0  0  0  0  0  0  0  0
  4  2  1  0
  5  3  1  0
  6  5  1  0
  7  5  1  0
  8  4  1  0
 11  8  1  0
 11 10  2  0
 12  6  1  0
 13  8  1  0
 13 11  1  0
 14  1  1  0
 14  2  1  0
 15  3  1  0
 15  6  1  0
 16  9  2  0
 16 12  1  0
 16 13  1  0
 17  1  1  0
 17  2  1  0
 17 14  1  0
M  END
>  <ID>  (1) 
conformer_0

$$$$
