
     RDKit          3D

 17 17  0  0  0  0  0  0  0  0999 V2000
   49.6068   10.9460   82.4508 C   0  0  0  0  0  0  0  0  0  0  0  0
   50.5478   10.3192   81.2911 C   0  0  0  0  0  0  0  0  0  0  0  0
   52.9289   15.2168   83.0341 C   0  0  0  0  0  0  0  0  0  0  0  0
   54.3553   17.5660   82.2667 C   0  0  0  0  0  0  0  0  0  0  0  0
   54.6171   12.0845   81.1197 C   0  0  0  0  0  0  0  0  0  0  0  0
   51.2066   11.7046   81.9484 C   0  0  0  0  0  0  0  0  0  0  0  0
   55.2012   11.2265   81.5698 O   0  0  0  0  0  0  0  0  0  0  0  0
   55.1456   13.7487   83.2599 O   0  0  0  0  0  0  0  0  0  0  0  0
   54.4073   14.9499   81.9355 N   0  0  0  0  0  0  0  0  0  0  0  0
   52.1475   15.3238   83.6282 O   0  0  0  0  0  0  0  0  0  0  0  0
   52.8713   17.0932   83.8168 N   0  0  0  0  0  0  0  0  0  0  0  0
   52.3101   11.1585   80.8224 C   0  0  0  0  0  0  0  0  0  0  0  0
   53.1617   18.0097   83.3912 C   0  0  0  0  0  0  0  0  0  0  0  0
   53.0573   12.3504   80.8559 C   0  0  0  0  0  0  0  0  0  0  0  0
   55.1707   13.8326   82.0960 C   0  0  0  0  0  0  0  0  0  0  0  0
   54.3107   16.3891   82.6436 C   0  0  0  0  0  0  0  0  0  0  0  0
   55.1485   13.2190   80.6638 C   0  0  0  0  0  0  0  0  0  0  0  0
  2  1  1  0
  6  1  1  0
  6  2  1  0
  7  5  2  0
 10  3  2  0
 12  6  1  0
 13  4  1  0
 13 11  1  0
 14  5  1  0
 14 12  1  0
 15  8  2  0
 15  9  1  0
 16  3  1  0
 16  4  1  0
 16  9  1  0
 17  5  1  0
 17 15  1  0
M  END
>  <ID>  (1) 
conformer_0

$$$$
