
     RDKit          3D

 16 17  0  0  0  0  0  0  0  0999 V2000
   51.3375   11.7813   81.8695 C   0  0  0  0  0  0  0  0  0  0  0  0
   49.6742   11.0644   82.2834 C   0  0  0  0  0  0  0  0  0  0  0  0
   53.9566   17.2622   82.9113 C   0  0  0  0  0  0  0  0  0  0  0  0
   52.6522   11.5140   80.8495 C   0  0  0  0  0  0  0  0  0  0  0  0
   54.9535   14.5647   82.3133 C   0  0  0  0  0  0  0  0  0  0  0  0
   55.0182   14.2353   83.2462 O   0  0  0  0  0  0  0  0  0  0  0  0
   54.4942   17.9311   82.2954 C   0  0  0  0  0  0  0  0  0  0  0  0
   52.1386   15.4677   83.5917 O   0  0  0  0  0  0  0  0  0  0  0  0
   54.3458   15.5807   81.8624 N   0  0  0  0  0  0  0  0  0  0  0  0
   55.5686   10.8155   81.2362 O   0  0  0  0  0  0  0  0  0  0  0  0
   55.2092   11.8665   81.4764 C   0  0  0  0  0  0  0  0  0  0  0  0
   53.5642   12.2284   81.0214 C   0  0  0  0  0  0  0  0  0  0  0  0
   55.2992   13.2508   80.9706 C   0  0  0  0  0  0  0  0  0  0  0  0
   52.7908   16.0264   83.3995 C   0  0  0  0  0  0  0  0  0  0  0  0
   52.3444   17.3855   83.4986 O   0  0  0  0  0  0  0  0  0  0  0  0
   50.7978   10.5539   81.0981 C   0  0  0  0  0  0  0  0  0  0  0  0
  2  1  1  0
  4  1  1  0
  6  5  2  0
  7  3  1  0
  9  3  1  0
  9  5  1  0
 11 10  1  0
 12  4  1  0
 12 11  1  0
 13  5  1  0
 13 11  1  0
 14  3  1  0
 14  8  2  0
 15  3  1  0
 15 14  1  0
 16  1  1  0
 16  2  1  0
M  END
>  <ID>  (1) 
conformer_0

$$$$
