
     RDKit          3D

 11 10  0  0  0  0  0  0  0  0999 V2000
   51.2311   10.8906   81.1930 C   0  0  0  0  0  0  0  0  0  0  0  0
   50.0396   10.6479   81.6879 C   0  0  0  0  0  0  0  0  0  0  0  0
   54.1614   15.4075   82.9687 C   0  0  0  0  0  0  0  0  0  0  0  0
   52.4583   11.4552   80.9592 C   0  0  0  0  0  0  0  0  0  0  0  0
   55.2973   12.9000   81.7180 C   0  0  0  0  0  0  0  0  0  0  0  0
   55.1785   13.9263   83.3485 O   0  0  0  0  0  0  0  0  0  0  0  0
   54.5534   17.3956   82.4649 C   0  0  0  0  0  0  0  0  0  0  0  0
   52.2053   16.6988   83.3827 O   0  0  0  0  0  0  0  0  0  0  0  0
   54.4720   15.1492   82.0785 N   0  0  0  0  0  0  0  0  0  0  0  0
   54.0421   12.4272   80.6805 C   0  0  0  0  0  0  0  0  0  0  0  0
   53.4050   17.2332   83.1411 C   0  0  0  0  0  0  0  0  0  0  0  0
  2  1  1  0
  4  1  3  0
  6  3  1  0
  6  5  1  0
  9  3  1  0
 10  4  1  0
 10  5  1  0
 11  3  1  0
 11  7  1  0
 11  8  1  0
M  END
>  <ID>  (1) 
conformer_0

$$$$
