
     RDKit          3D

 15 15  0  0  0  0  0  0  0  0999 V2000
   49.4435   10.9313   82.5046 C   0  0  0  0  0  0  0  0  0  0  0  0
   50.9130    9.9441   81.9025 C   0  0  0  0  0  0  0  0  0  0  0  0
   53.6965   17.8886   83.0445 C   0  0  0  0  0  0  0  0  0  0  0  0
   50.9599   11.4819   82.0377 C   0  0  0  0  0  0  0  0  0  0  0  0
   54.5263   17.7110   82.2160 C   0  0  0  0  0  0  0  0  0  0  0  0
   53.0296   16.4447   83.1492 C   0  0  0  0  0  0  0  0  0  0  0  0
   52.1821   16.1536   83.6442 O   0  0  0  0  0  0  0  0  0  0  0  0
   54.2462   15.4183   81.9190 N   0  0  0  0  0  0  0  0  0  0  0  0
   52.5430   11.5804   81.4094 C   0  0  0  0  0  0  0  0  0  0  0  0
   55.2924   13.5788   83.0312 O   0  0  0  0  0  0  0  0  0  0  0  0
   55.4118   11.1977   81.3841 O   0  0  0  0  0  0  0  0  0  0  0  0
   53.2035   11.9715   80.5064 C   0  0  0  0  0  0  0  0  0  0  0  0
   54.8629   14.9397   82.3013 C   0  0  0  0  0  0  0  0  0  0  0  0
   54.8751   13.1059   80.9261 C   0  0  0  0  0  0  0  0  0  0  0  0
   55.2124   12.7062   81.4544 C   0  0  0  0  0  0  0  0  0  0  0  0
  2  1  1  0
  4  1  1  0
  4  2  1  0
  5  3  1  0
  6  3  1  0
  7  6  2  0
  8  6  1  0
  9  4  1  0
 12  9  1  0
 13  8  1  0
 13 10  1  0
 14 12  1  0
 15 10  1  0
 15 11  2  0
 15 14  1  0
M  END
>  <ID>  (1) 
conformer_0

$$$$
