
     RDKit          3D

 13 13  0  0  0  0  0  0  0  0999 V2000
   50.1345   11.5891   82.4464 C   0  0  0  0  0  0  0  0  0  0  0  0
   50.3200   10.3501   81.6955 C   0  0  0  0  0  0  0  0  0  0  0  0
   53.2639   17.3971   83.2262 C   0  0  2  0  0  0  0  0  0  0  0  0
   51.7572   11.4403   81.4715 C   0  0  0  0  0  0  0  0  0  0  0  0
   52.1650   16.0329   83.7265 O   0  0  0  0  0  0  0  0  0  0  0  0
   53.0125   11.6784   81.0126 C   0  0  0  0  0  0  0  0  0  0  0  0
   54.2938   15.5087   81.8741 N   0  0  0  0  0  0  0  0  0  0  0  0
   54.0894   15.6086   82.5278 C   0  0  1  0  0  0  0  0  0  0  0  0
   54.3911   17.7323   82.6235 C   0  0  0  0  0  0  0  0  0  0  0  0
   55.5693   10.8576   81.2245 O   0  0  0  0  0  0  0  0  0  0  0  0
   54.7693   12.8445   80.8349 C   0  0  0  0  0  0  0  0  0  0  0  0
   55.2247   12.9544   81.4255 C   0  0  1  0  0  0  0  0  0  0  0  0
   54.8553   13.9904   83.0015 O   0  0  0  0  0  0  0  0  0  0  0  0
  2  1  1  0
  4  1  1  0
  4  2  1  0
  5  3  1  0
  6  4  2  3
  8  3  1  0
  8  7  1  6
  3  9  1  1
 11  6  1  0
 12 10  1  1
 12 11  1  0
 13  8  1  0
 13 12  1  0
M  END
>  <ID>  (1) 
conformer_0

$$$$
