
     RDKit          3D

 14 13  0  0  0  0  0  0  0  0999 V2000
   50.2564   11.3664   82.2473 C   0  0  0  0  0  0  0  0  0  0  0  0
   50.6597   10.4785   81.3240 C   0  0  0  0  0  0  0  0  0  0  0  0
   53.3912   17.3926   83.1039 C   0  0  0  0  0  0  0  0  0  0  0  0
   54.9276   12.3951   81.5074 C   0  0  0  0  0  0  0  0  0  0  0  0
   51.9315   11.5406   81.1876 C   0  0  0  0  0  0  0  0  0  0  0  0
   55.6428   13.4372   81.2982 C   0  0  0  0  0  0  0  0  0  0  0  0
   55.3216   11.0161   81.7262 O   0  0  0  0  0  0  0  0  0  0  0  0
   52.1418   15.4157   83.4634 O   0  0  0  0  0  0  0  0  0  0  0  0
   54.6236   14.0827   83.1251 O   0  0  0  0  0  0  0  0  0  0  0  0
   54.0885   15.2873   82.6394 C   0  0  0  0  0  0  0  0  0  0  0  0
   54.1013   15.3721   81.9678 N   0  0  0  0  0  0  0  0  0  0  0  0
   53.4313   11.8435   80.3815 C   0  0  0  0  0  0  0  0  0  0  0  0
   52.2252   17.5923   83.5028 O   0  0  0  0  0  0  0  0  0  0  0  0
   54.7466   17.0536   82.2736 C   0  0  0  0  0  0  0  0  0  0  0  0
  2  1  1  0
  5  2  1  0
  6  4  1  0
  7  4  1  0
 10  8  1  0
 10  9  1  0
 11 10  1  0
 12  4  1  0
 12  5  1  0
 13  3  1  0
 14  3  1  0
 14  6  1  0
 14 11  1  0
M  END
>  <ID>  (1) 
conformer_0

$$$$
