
     RDKit          3D

 17 17  0  0  0  0  0  0  0  0999 V2000
   49.4535   11.2015   82.7625 C   0  0  0  0  0  0  0  0  0  0  0  0
   49.8970    9.9682   81.7006 C   0  0  0  0  0  0  0  0  0  0  0  0
   53.3485   17.6866   83.0284 C   0  0  0  0  0  0  0  0  0  0  0  0
   51.0732   11.6881   81.9401 C   0  0  0  0  0  0  0  0  0  0  0  0
   53.2770   15.9711   82.9289 C   0  0  0  0  0  0  0  0  0  0  0  0
   52.6462   11.6450   80.5203 C   0  0  0  0  0  0  0  0  0  0  0  0
   55.3444   14.0138   83.3283 O   0  0  0  0  0  0  0  0  0  0  0  0
   52.2245   15.5070   83.4723 O   0  0  0  0  0  0  0  0  0  0  0  0
   54.3718   17.3182   82.3518 C   0  0  0  0  0  0  0  0  0  0  0  0
   53.2892   18.4412   83.8085 O   0  0  0  0  0  0  0  0  0  0  0  0
   55.5323   11.0335   81.2563 O   0  0  0  0  0  0  0  0  0  0  0  0
   54.1524   15.1273   82.0980 N   0  0  0  0  0  0  0  0  0  0  0  0
   54.9826   14.3086   82.5652 C   0  0  0  0  0  0  0  0  0  0  0  0
   53.7588   12.1571   80.9537 C   0  0  0  0  0  0  0  0  0  0  0  0
   55.2011   12.1655   81.4102 C   0  0  0  0  0  0  0  0  0  0  0  0
   55.2882   13.3328   81.0755 C   0  0  0  0  0  0  0  0  0  0  0  0
   51.4182   10.6452   81.0804 C   0  0  0  0  0  0  0  0  0  0  0  0
  2  1  1  0
  4  1  1  0
  5  3  1  0
  8  5  2  0
  9  3  1  0
 10  3  1  0
 12  5  1  0
 13  7  2  0
 13 12  1  0
 14  6  1  0
 15 11  1  0
 15 14  1  0
 16 13  1  0
 16 15  1  0
 17  2  1  0
 17  4  1  0
 17  6  1  0
M  END
>  <ID>  (1) 
conformer_0

$$$$
