
     RDKit          3D

 13 12  0  0  0  0  0  0  0  0999 V2000
   49.8219   10.9402   82.2853 C   0  0  0  0  0  0  0  0  0  0  0  0
   50.5895   10.4671   81.2706 C   0  0  0  0  0  0  0  0  0  0  0  0
   53.3969   17.4855   83.1199 C   0  0  0  0  0  0  0  0  0  0  0  0
   51.9952   11.3558   81.3457 C   0  0  0  0  0  0  0  0  0  0  0  0
   55.5827   10.7525   81.1255 O   0  0  0  0  0  0  0  0  0  0  0  0
   53.2195   16.0191   82.9383 C   0  0  0  0  0  0  0  0  0  0  0  0
   52.1375   15.7085   83.6939 O   0  0  0  0  0  0  0  0  0  0  0  0
   54.3316   17.9457   82.5337 C   0  0  0  0  0  0  0  0  0  0  0  0
   54.4443   15.1851   81.8917 N   0  0  0  0  0  0  0  0  0  0  0  0
   52.9428   11.8629   81.1194 C   0  0  0  0  0  0  0  0  0  0  0  0
   54.9236   14.5069   82.2573 C   0  0  0  0  0  0  0  0  0  0  0  0
   54.8525   12.8630   80.9639 C   0  0  0  0  0  0  0  0  0  0  0  0
   55.2791   12.1475   81.3654 C   0  0  0  0  0  0  0  0  0  0  0  0
  2  1  1  0
  4  2  1  0
  6  3  1  0
  7  6  2  0
  8  3  1  0
  9  6  1  0
 10  4  3  0
 11  9  1  0
 12 10  1  0
 12 11  1  0
 13  5  1  0
 13 12  1  0
M  END
>  <ID>  (1) 
conformer_0

$$$$
