
     RDKit          3D

 14 13  0  0  0  0  0  0  0  0999 V2000
   49.9856   10.1032   81.4465 C   0  0  0  0  0  0  0  0  0  0  0  0
   52.0034   11.2398   81.2175 C   0  0  0  0  0  0  0  0  0  0  0  0
   53.6069   17.5683   83.0238 C   0  0  0  0  0  0  0  0  0  0  0  0
   50.6039   11.0564   81.8861 C   0  0  0  0  0  0  0  0  0  0  0  0
   53.0654   16.0532   83.1526 C   0  0  0  0  0  0  0  0  0  0  0  0
   54.1537   18.2312   82.4458 C   0  0  0  0  0  0  0  0  0  0  0  0
   52.1565   15.8239   83.7613 O   0  0  0  0  0  0  0  0  0  0  0  0
   55.1811   13.7488   83.3224 O   0  0  0  0  0  0  0  0  0  0  0  0
   54.2964   15.4304   82.0052 N   0  0  0  0  0  0  0  0  0  0  0  0
   55.4510   11.1675   81.6788 O   0  0  0  0  0  0  0  0  0  0  0  0
   53.0406   11.7705   80.6670 C   0  0  0  0  0  0  0  0  0  0  0  0
   54.8219   14.6282   82.3582 C   0  0  0  0  0  0  0  0  0  0  0  0
   54.4984   12.8226   80.9463 C   0  0  1  0  0  0  0  0  0  0  0  0
   55.2134   12.2882   81.5860 C   0  0  0  0  0  0  0  0  0  0  0  0
  4  1  1  0
  4  2  1  0
  5  3  1  0
  6  3  2  3
  7  5  2  0
  9  5  1  0
 11  2  1  0
 12  8  2  0
 12  9  1  0
 13 11  1  1
 13 12  1  0
 14 10  2  0
 14 13  1  0
M  END
>  <ID>  (1) 
conformer_0

$$$$
