
     RDKit          3D

 17 17  0  0  0  0  0  0  0  0999 V2000
   50.5138   10.1955   81.0648 C   0  0  0  0  0  0  0  0  0  0  0  0
   49.5895   11.0261   82.4756 C   0  0  0  0  0  0  0  0  0  0  0  0
   52.8541   15.6383   83.0981 C   0  0  0  0  0  0  0  0  0  0  0  0
   51.0307   11.5069   81.8820 C   0  0  0  0  0  0  0  0  0  0  0  0
   54.6733   14.7134   82.5793 C   0  0  0  0  0  0  0  0  0  0  0  0
   51.9460   14.8406   83.2264 O   0  0  0  0  0  0  0  0  0  0  0  0
   54.4121   17.6226   82.6066 C   0  0  0  0  0  0  0  0  0  0  0  0
   54.4414   15.1431   81.9924 N   0  0  0  0  0  0  0  0  0  0  0  0
   55.3580   11.1317   81.4188 O   0  0  0  0  0  0  0  0  0  0  0  0
   52.2917   11.3006   80.7506 C   0  0  0  0  0  0  0  0  0  0  0  0
   53.6286   17.3089   83.1484 C   0  0  0  0  0  0  0  0  0  0  0  0
   56.6695   12.9604   81.0677 O   0  0  0  0  0  0  0  0  0  0  0  0
   55.1620   13.4432   83.0551 O   0  0  0  0  0  0  0  0  0  0  0  0
   53.1701   12.1542   81.0040 C   0  0  0  0  0  0  0  0  0  0  0  0
   55.3334   12.7234   81.3539 C   0  0  0  0  0  0  0  0  0  0  0  0
   54.8288   13.0064   80.8480 C   0  0  0  0  0  0  0  0  0  0  0  0
   52.2971   16.5654   83.6686 O   0  0  0  0  0  0  0  0  0  0  0  0
  2  1  1  0
  4  1  1  0
  4  2  1  0
  6  3  2  0
  8  3  1  0
  8  5  1  0
 10  4  1  0
 11  7  3  0
 13  5  1  0
 14 10  1  0
 15  9  1  0
 15 12  1  0
 15 13  1  0
 16 14  1  0
 16 15  1  0
 17  3  1  0
 17 11  1  0
M  END
>  <ID>  (1) 
conformer_0

$$$$
