
     RDKit          3D

 13 12  0  0  0  0  0  0  0  0999 V2000
   50.5508   10.2458   81.0427 C   0  0  0  0  0  0  0  0  0  0  0  0
   50.0571   10.8333   82.1157 C   0  0  0  0  0  0  0  0  0  0  0  0
   53.8487   15.8318   82.7794 C   0  0  0  0  0  0  0  0  0  0  0  0
   55.2756   13.3495   81.7320 C   0  0  0  0  0  0  0  0  0  0  0  0
   51.9431   11.3584   81.2130 C   0  0  0  0  0  0  0  0  0  0  0  0
   55.0700   14.0587   83.2768 O   0  0  0  0  0  0  0  0  0  0  0  0
   54.5805   17.6436   82.4385 C   0  0  0  0  0  0  0  0  0  0  0  0
   52.0022   16.3604   83.4357 O   0  0  0  0  0  0  0  0  0  0  0  0
   54.4265   15.1979   81.7448 N   0  0  0  0  0  0  0  0  0  0  0  0
   53.0064   11.8878   80.9044 C   0  0  0  0  0  0  0  0  0  0  0  0
   55.3912   11.0767   81.4720 O   0  0  0  0  0  0  0  0  0  0  0  0
   54.9831   12.8917   80.8057 C   0  0  0  0  0  0  0  0  0  0  0  0
   53.2028   17.2853   83.2110 C   0  0  0  0  0  0  0  0  0  0  0  0
  2  1  1  0
  5  1  1  0
  6  4  1  0
  9  3  1  0
  9  4  1  0
 10  5  3  0
 12  4  1  0
 12 10  1  0
 12 11  1  0
 13  3  1  0
 13  7  1  0
 13  8  1  0
M  END
>  <ID>  (1) 
conformer_0

$$$$
