
     RDKit          3D

 16 16  0  0  0  0  0  0  0  0999 V2000
   50.0389   10.3016   81.4720 C   0  0  0  0  0  0  0  0  0  0  0  0
   50.5029   11.4850   82.1431 C   0  0  0  0  0  0  0  0  0  0  0  0
   55.6423   13.7280   81.9529 C   0  0  0  0  0  0  0  0  0  0  0  0
   52.6618   15.9055   83.1290 C   0  0  1  0  0  0  0  0  0  0  0  0
   54.2079   17.6705   82.5999 C   0  0  0  0  0  0  0  0  0  0  0  0
   51.9085   14.6698   83.2569 O   0  0  0  0  0  0  0  0  0  0  0  0
   55.1767   13.8642   83.2238 O   0  0  0  0  0  0  0  0  0  0  0  0
   55.3641   11.2341   81.4378 O   0  0  0  0  0  0  0  0  0  0  0  0
   51.8915   11.2155   81.0541 C   0  0  0  0  0  0  0  0  0  0  0  0
   53.4658   14.8372   81.9917 N   0  0  0  0  0  0  0  0  0  0  0  0
   53.5516   17.6785   83.1930 C   0  0  0  0  0  0  0  0  0  0  0  0
   52.7567   11.8661   81.0966 C   0  0  0  0  0  0  0  0  0  0  0  0
   54.7808   12.0479   81.4516 C   0  0  2  0  0  0  0  0  0  0  0  0
   54.6081   13.2073   80.6723 C   0  0  0  0  0  0  0  0  0  0  0  0
   52.1420   16.6526   83.2357 O   0  0  0  0  0  0  0  0  0  0  0  0
   53.3268   14.0728   82.2929 C   0  0  2  0  0  0  0  0  0  0  0  0
  2  1  1  0
  6  4  1  0
  7  3  1  0
  9  2  1  0
 10  4  1  0
 11  5  2  3
 12  9  1  0
 13  8  1  6
 13 12  1  0
 14  3  1  0
 14 13  1  0
  4 15  1  6
 15 11  1  0
 16  6  1  0
 16  7  1  1
 16 10  1  0
M  END
>  <ID>  (1) 
conformer_0

$$$$
