
     RDKit          3D

 15 15  0  0  0  0  0  0  0  0999 V2000
   50.1174   10.0606   81.4506 C   0  0  0  0  0  0  0  0  0  0  0  0
   50.6637   11.0470   81.8043 C   0  0  0  0  0  0  0  0  0  0  0  0
   52.8987   15.9082   83.0038 C   0  0  0  0  0  0  0  0  0  0  0  0
   54.2815   17.9904   82.3786 C   0  0  0  0  0  0  0  0  0  0  0  0
   55.2610   12.3037   81.5940 C   0  0  0  0  0  0  0  0  0  0  0  0
   52.0458   11.3186   80.9706 C   0  0  0  0  0  0  0  0  0  0  0  0
   53.9669   15.2477   81.8418 N   0  0  0  0  0  0  0  0  0  0  0  0
   52.2794   17.1854   83.7299 O   0  0  0  0  0  0  0  0  0  0  0  0
   55.2512   13.9795   82.9735 O   0  0  0  0  0  0  0  0  0  0  0  0
   53.1791   11.6958   80.9383 C   0  0  0  0  0  0  0  0  0  0  0  0
   55.4662   11.7688   82.2658 O   0  0  0  0  0  0  0  0  0  0  0  0
   53.5721   17.5996   83.0855 C   0  0  0  0  0  0  0  0  0  0  0  0
   54.6552   12.7647   80.7595 C   0  0  0  0  0  0  0  0  0  0  0  0
   52.1733   15.2773   83.4506 O   0  0  0  0  0  0  0  0  0  0  0  0
   54.6078   14.4327   82.1486 C   0  0  0  0  0  0  0  0  0  0  0  0
  2  1  1  0
  6  2  1  0
  7  3  1  0
  8  3  1  0
 10  6  1  0
 11  5  1  0
 12  3  1  0
 12  4  1  0
 12  8  1  0
 13  5  1  0
 13 10  1  0
 14  3  1  0
 15  7  1  0
 15  9  2  0
 15 13  1  0
M  END
>  <ID>  (1) 
conformer_0

$$$$
