
     RDKit          3D

 14 13  0  0  0  0  0  0  0  0999 V2000
   50.9635   10.3353   81.7277 C   0  0  0  0  0  0  0  0  0  0  0  0
   49.8856   11.0918   82.2655 C   0  0  0  0  0  0  0  0  0  0  0  0
   53.1632   17.6431   83.2048 C   0  0  0  0  0  0  0  0  0  0  0  0
   54.1199   17.8705   82.7281 C   0  0  0  0  0  0  0  0  0  0  0  0
   54.9498   13.9871   82.2717 C   0  0  1  0  0  0  0  0  0  0  0  0
   51.7800   11.6981   81.4865 C   0  0  0  0  0  0  0  0  0  0  0  0
   55.7810   11.0352   81.1800 O   0  0  0  0  0  0  0  0  0  0  0  0
   54.2366   15.1578   82.2704 N   0  0  0  0  0  0  0  0  0  0  0  0
   52.1599   16.1100   83.6489 O   0  0  0  0  0  0  0  0  0  0  0  0
   52.9427   11.7723   81.1037 C   0  0  0  0  0  0  0  0  0  0  0  0
   53.3362   15.6452   83.0349 C   0  0  0  0  0  0  0  0  0  0  0  0
   55.0675   13.3618   83.0861 O   0  0  0  0  0  0  0  0  0  0  0  0
   54.4931   12.9565   80.7292 C   0  0  2  0  0  0  0  0  0  0  0  0
   55.2500   12.2038   81.2430 C   0  0  0  0  0  0  0  0  0  0  0  0
  2  1  1  0
  4  3  2  3
  6  1  1  0
  8  5  1  0
  9  3  1  0
 10  6  2  3
 11  8  1  0
 11  9  1  0
  5 12  1  1
 13  5  1  0
 13 10  1  0
 14  7  2  0
 13 14  1  1
M  END
>  <ID>  (1) 
conformer_0

$$$$
