
     RDKit          3D

 13 12  0  0  0  0  0  0  0  0999 V2000
   50.1317   10.9330   82.0532 C   0  0  0  0  0  0  0  0  0  0  0  0
   50.6814   10.3507   81.2385 C   0  0  0  0  0  0  0  0  0  0  0  0
   52.8793   16.0458   83.1015 C   0  0  0  0  0  0  0  0  0  0  0  0
   52.0534   11.5246   81.3248 C   0  0  0  0  0  0  0  0  0  0  0  0
   52.2168   15.3147   83.6163 O   0  0  0  0  0  0  0  0  0  0  0  0
   55.2302   12.2655   81.5183 C   0  0  0  0  0  0  0  0  0  0  0  0
   55.4402   11.2603   82.0037 O   0  0  0  0  0  0  0  0  0  0  0  0
   54.4218   17.4672   82.2309 C   0  0  0  0  0  0  0  0  0  0  0  0
   54.1373   15.1733   82.0385 N   0  0  0  0  0  0  0  0  0  0  0  0
   53.4676   17.7165   83.1649 C   0  0  0  0  0  0  0  0  0  0  0  0
   53.1519   11.9198   80.8958 C   0  0  0  0  0  0  0  0  0  0  0  0
   54.7788   13.0767   81.0916 C   0  0  1  0  0  0  0  0  0  0  0  0
   54.5314   14.7641   82.4766 C   0  0  0  0  0  0  0  0  0  0  0  0
  2  1  1  0
  4  2  1  0
  5  3  2  0
  7  6  1  0
  9  3  1  0
 10  3  1  0
 10  8  1  0
 11  4  2  3
 12  6  1  1
 12 11  1  0
 13  9  1  0
 13 12  1  0
M  END
>  <ID>  (1) 
conformer_0

$$$$
