
     RDKit          3D

 15 15  0  0  0  0  0  0  0  0999 V2000
   50.2810   11.2753   82.2313 C   0  0  0  0  0  0  0  0  0  0  0  0
   50.1614   10.0412   81.4169 C   0  0  0  0  0  0  0  0  0  0  0  0
   53.7866   17.6036   82.7512 C   0  0  0  0  0  0  0  0  0  0  0  0
   51.5208   10.7983   80.9726 C   0  0  0  0  0  0  0  0  0  0  0  0
   55.1666   13.9161   83.1335 O   0  0  0  0  0  0  0  0  0  0  0  0
   52.1604   15.9745   83.7497 O   0  0  0  0  0  0  0  0  0  0  0  0
   54.2013   14.7342   82.8021 C   0  0  0  0  0  0  0  0  0  0  0  0
   54.0306   15.3520   81.9731 N   0  0  0  0  0  0  0  0  0  0  0  0
   55.5720   10.9907   81.4354 O   0  0  0  0  0  0  0  0  0  0  0  0
   52.9080   16.0670   83.5016 C   0  0  0  0  0  0  0  0  0  0  0  0
   52.6443   11.7290   81.1292 C   0  0  0  0  0  0  0  0  0  0  0  0
   53.3155   18.5877   83.7559 O   0  0  0  0  0  0  0  0  0  0  0  0
   53.4732   11.8235   80.0749 C   0  0  0  0  0  0  0  0  0  0  0  0
   55.2536   12.5316   81.5447 C   0  0  0  0  0  0  0  0  0  0  0  0
   54.8016   12.9620   80.9196 C   0  0  0  0  0  0  0  0  0  0  0  0
  2  1  1  0
  4  1  1  0
  4  2  1  0
  7  5  1  0
  8  7  1  0
 10  3  1  0
 10  6  2  0
 10  7  1  0
 11  4  1  0
 12  3  1  0
 13 11  1  0
 14  5  1  0
 14  9  2  0
 15 13  1  0
 15 14  1  0
M  END
>  <ID>  (1) 
conformer_0

$$$$
