
     RDKit          3D

 14 13  0  0  0  0  0  0  0  0999 V2000
   49.7530   10.8795   82.1852 C   0  0  0  0  0  0  0  0  0  0  0  0
   51.6761   11.5680   81.4924 C   0  0  0  0  0  0  0  0  0  0  0  0
   53.6932   15.5167   82.9105 C   0  0  0  0  0  0  0  0  0  0  0  0
   52.7664   11.5670   80.5529 C   0  0  0  0  0  0  0  0  0  0  0  0
   54.2238   17.7254   82.7531 C   0  0  0  0  0  0  0  0  0  0  0  0
   52.3895   15.7592   83.5976 O   0  0  0  0  0  0  0  0  0  0  0  0
   55.2911   13.0261   81.6794 C   0  0  0  0  0  0  0  0  0  0  0  0
   55.5164   11.2809   81.7060 O   0  0  0  0  0  0  0  0  0  0  0  0
   54.8772   14.1186   83.0404 O   0  0  0  0  0  0  0  0  0  0  0  0
   56.6387   13.0839   81.1917 O   0  0  0  0  0  0  0  0  0  0  0  0
   54.0576   12.4517   80.6681 C   0  0  0  0  0  0  0  0  0  0  0  0
   53.3869   17.3110   83.1914 C   0  0  0  0  0  0  0  0  0  0  0  0
   50.4126   10.2843   81.1464 C   0  0  0  0  0  0  0  0  0  0  0  0
   54.3581   14.7555   81.6246 N   0  0  0  0  0  0  0  0  0  0  0  0
  4  2  1  0
  6  3  1  0
  8  7  1  0
  9  7  1  0
 10  7  1  0
 11  4  1  0
 11  7  1  0
 12  3  1  0
 12  5  1  0
 13  1  1  0
 13  2  1  0
 14  3  1  0
 14  9  1  0
M  END
>  <ID>  (1) 
conformer_0

$$$$
