
     RDKit          3D

 16 15  0  0  0  0  0  0  0  0999 V2000
   49.3112   10.7446   82.3834 C   0  0  0  0  0  0  0  0  0  0  0  0
   50.8802   10.5769   80.9901 C   0  0  0  0  0  0  0  0  0  0  0  0
   52.9749   16.0582   83.1548 C   0  0  0  0  0  0  0  0  0  0  0  0
   52.3185   11.6826   81.1564 C   0  0  0  0  0  0  0  0  0  0  0  0
   55.2139   13.8999   83.3229 O   0  0  0  0  0  0  0  0  0  0  0  0
   52.1398   15.5429   83.4701 O   0  0  0  0  0  0  0  0  0  0  0  0
   54.8760   14.6112   82.5238 C   0  0  0  0  0  0  0  0  0  0  0  0
   55.6883   11.1402   81.4491 O   0  0  0  0  0  0  0  0  0  0  0  0
   54.3255   17.5750   82.5453 C   0  0  0  0  0  0  0  0  0  0  0  0
   54.4169   15.1351   82.0024 N   0  0  0  0  0  0  0  0  0  0  0  0
   53.1101   11.6090   80.2806 C   0  0  0  0  0  0  0  0  0  0  0  0
   53.3784   17.5658   83.1818 C   0  0  0  0  0  0  0  0  0  0  0  0
   52.8206   18.6164   83.6796 O   0  0  0  0  0  0  0  0  0  0  0  0
   55.4488   12.3732   81.4050 C   0  0  0  0  0  0  0  0  0  0  0  0
   54.6142   12.6258   80.9180 C   0  0  0  0  0  0  0  0  0  0  0  0
   50.4995   11.6182   82.2498 C   0  0  0  0  0  0  0  0  0  0  0  0
  4  2  1  0
  6  3  2  0
  7  5  2  0
 10  3  1  0
 10  7  1  0
 11  4  1  0
 12  3  1  0
 12  9  2  3
 13 12  1  0
 14  7  1  0
 14  8  2  0
 15 11  1  0
 15 14  1  0
 16  1  1  0
 16  2  1  0
M  END
>  <ID>  (1) 
conformer_0

$$$$
