
     RDKit          3D

 15 15  0  0  0  0  0  0  0  0999 V2000
   50.7469   10.0513   81.4675 C   0  0  0  0  0  0  0  0  0  0  0  0
   53.6908   12.2794   80.0789 C   0  0  0  0  0  0  0  0  0  0  0  0
   53.2112   17.5459   83.3974 C   0  0  0  0  0  0  0  0  0  0  0  0
   49.6652   11.1010   82.4915 C   0  0  0  0  0  0  0  0  0  0  0  0
   53.3683   15.6715   83.0083 C   0  0  0  0  0  0  0  0  0  0  0  0
   54.1737   15.3196   81.8486 N   0  0  0  0  0  0  0  0  0  0  0  0
   54.9744   13.9257   83.1865 O   0  0  0  0  0  0  0  0  0  0  0  0
   54.9383   14.2058   82.0682 C   0  0  0  0  0  0  0  0  0  0  0  0
   52.1782   15.2922   83.5126 O   0  0  0  0  0  0  0  0  0  0  0  0
   54.1425   17.8614   82.7377 C   0  0  0  0  0  0  0  0  0  0  0  0
   55.2226   10.9349   81.6597 O   0  0  0  0  0  0  0  0  0  0  0  0
   51.0608   11.7218   81.9254 C   0  0  0  0  0  0  0  0  0  0  0  0
   52.3758   11.6069   81.0396 C   0  0  0  0  0  0  0  0  0  0  0  0
   55.2297   11.7477   81.3434 C   0  0  0  0  0  0  0  0  0  0  0  0
   55.0615   12.7176   80.6721 C   0  0  0  0  0  0  0  0  0  0  0  0
  4  1  1  0
  5  3  1  0
  6  5  1  0
  8  6  1  0
  8  7  2  0
  9  5  2  0
 10  3  1  0
 12  1  1  0
 12  4  1  0
 13  2  1  0
 13 12  1  0
 14 11  1  0
 15  2  1  0
 15  8  1  0
 15 14  1  0
M  END
>  <ID>  (1) 
conformer_0

$$$$
