
     RDKit          3D

 17 16  0  0  0  0  0  0  0  0999 V2000
   49.6383   11.3778   82.5883 C   0  0  0  0  0  0  0  0  0  0  0  0
   50.5907   10.5974   81.7908 C   0  0  0  0  0  0  0  0  0  0  0  0
   53.4478   17.5971   83.2040 C   0  0  0  0  0  0  0  0  0  0  0  0
   51.4355   11.8589   81.7422 C   0  0  0  0  0  0  0  0  0  0  0  0
   54.4855   17.6909   82.1214 C   0  0  0  0  0  0  0  0  0  0  0  0
   55.5476   11.2359   81.4221 O   0  0  0  0  0  0  0  0  0  0  0  0
   52.4748   15.7202   83.7170 C   0  0  0  0  0  0  0  0  0  0  0  0
   52.2693   17.1819   83.7471 O   0  0  0  0  0  0  0  0  0  0  0  0
   54.2600   15.3652   81.9681 N   0  0  0  0  0  0  0  0  0  0  0  0
   52.7125   11.4070   81.1114 C   0  0  0  0  0  0  0  0  0  0  0  0
   54.1484   15.5889   82.8044 C   0  0  0  0  0  0  0  0  0  0  0  0
   55.0162   13.6900   82.9022 O   0  0  0  0  0  0  0  0  0  0  0  0
   53.5649   12.3211   80.4844 C   0  0  0  0  0  0  0  0  0  0  0  0
   54.9836   11.8381   81.0738 C   0  0  0  0  0  0  0  0  0  0  0  0
   52.0014   15.2612   83.6431 O   0  0  0  0  0  0  0  0  0  0  0  0
   55.5742   13.9260   81.8936 C   0  0  0  0  0  0  0  0  0  0  0  0
   55.2271   13.4330   80.7199 C   0  0  0  0  0  0  0  0  0  0  0  0
  2  1  1  0
  4  2  1  0
  5  3  1  0
  8  3  1  0
  8  7  1  0
 10  4  1  0
 11  7  1  0
 11  9  1  0
 13 10  1  0
 14  6  2  0
 14 13  1  0
 15  7  2  0
 16  9  1  0
 16 12  1  0
 17 14  1  0
 17 16  1  0
M  END
>  <ID>  (1) 
conformer_0

$$$$
