
     RDKit          3D

 17 18  0  0  0  0  0  0  0  0999 V2000
   49.8366   10.6160   81.8742 C   0  0  0  0  0  0  0  0  0  0  0  0
   50.7271   11.9722   82.3856 C   0  0  0  0  0  0  0  0  0  0  0  0
   52.4246   15.4958   83.1800 C   0  0  0  0  0  0  0  0  0  0  0  0
   51.3882   10.7517   80.9800 C   0  0  0  0  0  0  0  0  0  0  0  0
   52.0453   14.6137   83.0520 O   0  0  0  0  0  0  0  0  0  0  0  0
   55.5187   14.0458   81.9184 C   0  0  0  0  0  0  0  0  0  0  0  0
   55.6126   13.7515   82.8843 O   0  0  0  0  0  0  0  0  0  0  0  0
   55.6172   10.9962   81.2258 O   0  0  0  0  0  0  0  0  0  0  0  0
   52.3302   11.7406   81.3812 C   0  0  0  0  0  0  0  0  0  0  0  0
   54.5057   17.4221   82.5291 C   0  0  0  0  0  0  0  0  0  0  0  0
   54.2000   15.4550   81.7878 N   0  0  0  0  0  0  0  0  0  0  0  0
   53.1563   17.7996   83.5291 C   0  0  0  0  0  0  0  0  0  0  0  0
   55.2069   11.9023   81.0679 C   0  0  0  0  0  0  0  0  0  0  0  0
   55.0712   13.3812   80.6431 C   0  0  0  0  0  0  0  0  0  0  0  0
   52.0947   16.4552   83.3636 O   0  0  0  0  0  0  0  0  0  0  0  0
   53.5783   11.9312   80.2303 C   0  0  0  0  0  0  0  0  0  0  0  0
   53.9930   16.3436   82.6491 C   0  0  0  0  0  0  0  0  0  0  0  0
  2  1  1  0
  4  1  1  0
  5  3  2  0
  7  6  1  0
  9  2  1  0
  9  4  2  0
 11  6  1  0
 12 10  1  0
 13  8  2  0
 14  6  1  0
 14 13  1  0
 15  3  1  0
 15 12  1  0
 16  9  1  0
 16 13  1  0
 17  3  1  0
 17 10  1  0
 17 11  1  0
M  END
>  <ID>  (1) 
conformer_0

$$$$
