
     RDKit          3D

 18 21  0  0  0  0  0  0  0  0999 V2000
   27.3234   56.4465   90.5909 C   0  0  0  0  0  0  0  0  0  0  0  0
   21.2708   54.1908   89.8367 C   0  0  0  0  0  0  0  0  0  0  0  0
   23.6885   55.6979   88.6544 C   0  0  0  0  0  0  0  0  0  0  0  0
   22.8017   54.7553   89.8214 C   0  0  0  0  0  0  0  0  0  0  0  0
   28.5105   60.2148   87.3020 C   0  0  0  0  0  0  0  0  0  0  0  0
   21.7387   55.1118   88.6900 C   0  0  0  0  0  3  0  0  0  0  0  0
   23.0068   56.1560   87.5619 C   0  0  0  0  0  0  0  0  0  0  0  0
   25.8333   55.7605   89.7900 O   0  0  0  0  0  0  0  0  0  0  0  0
   27.8822   56.9117   89.5233 C   0  0  0  0  0  0  0  0  0  0  0  0
   28.5655   58.2577   88.9718 N   0  0  0  0  0  0  0  0  0  0  0  0
   28.9927   55.7374   90.4443 O   0  0  0  0  0  0  0  0  0  0  0  0
   24.5856   55.4398   89.8383 C   0  0  0  0  0  0  0  0  0  0  0  0
   20.5241   55.2222   88.0675 C   0  0  0  0  0  0  0  0  0  0  0  0
   21.6364   56.1732   87.0564 C   0  0  0  0  0  0  0  0  0  0  0  0
   28.1078   58.4281   88.2060 C   0  0  0  0  0  0  0  0  0  0  0  0
   27.7869   59.1563   86.6679 C   0  0  0  0  0  0  0  0  0  0  0  0
   24.0200   54.8405   91.1353 C   0  0  0  0  0  0  0  0  0  0  0  0
   22.5049   54.1856   91.2753 C   0  0  0  0  0  0  0  0  0  0  0  0
  4  2  1  0
  4  3  1  0
  6  2  1  0
  6  4  1  0
  7  3  1  0
  8  1  1  0
  9  1  1  0
 10  9  1  0
 11  1  1  0
 12  3  2  0
 12  8  1  0
 13  6  1  0
 14  7  2  0
 14 13  1  0
 15 10  1  0
 16  5  1  0
 16 15  1  0
 17 12  1  0
 18  2  1  0
 18  4  1  0
 18 17  2  0
M  RAD  1   6   2
M  END
>  <ID>  (1) 
conformer_0

$$$$
