
     RDKit          3D

 17 18  0  0  0  0  0  0  0  0999 V2000
   23.6559   54.6577   91.1176 C   0  0  0  0  0  0  0  0  0  0  0  0
   23.0883   55.3169   89.2275 C   0  0  0  0  0  0  0  0  0  0  0  0
   26.8634   56.6615   90.5914 C   0  0  0  0  0  0  0  0  0  0  0  0
   23.0550   56.2559   87.0749 C   0  0  0  0  0  0  0  0  0  0  0  0
   24.0816   56.1552   87.9732 C   0  0  0  0  0  0  0  0  0  0  0  0
   25.4254   56.0351   90.0415 O   0  0  0  0  0  0  0  0  0  0  0  0
   28.0043   56.3859   90.0308 C   0  0  0  0  0  0  0  0  0  0  0  0
   24.2724   55.6134   89.7342 C   0  0  0  0  0  0  0  0  0  0  0  0
   28.0403   59.3080   86.7525 C   0  0  0  0  0  0  0  0  0  0  0  0
   28.8530   55.5832   90.6180 O   0  0  0  0  0  0  0  0  0  0  0  0
   22.3219   54.1932   91.1758 C   0  0  0  0  0  0  0  0  0  0  0  0
   21.4387   54.3431   90.0124 C   0  0  0  0  0  0  0  0  0  0  0  0
   27.8877   57.5258   88.8127 C   0  0  0  0  0  0  0  0  0  0  0  0
   28.2999   57.6308   88.4398 N   0  0  0  0  0  0  0  0  0  0  0  0
   21.7763   55.7723   87.6476 C   0  0  0  0  0  0  0  0  0  0  0  0
   21.4653   55.1124   88.7987 C   0  0  2  0  0  0  0  0  0  0  0  0
   28.0244   58.8999   87.2904 C   0  0  0  0  0  0  0  0  0  0  0  0
  5  2  2  0
  5  4  1  0
  6  3  1  0
  7  3  1  0
  8  1  2  0
  8  2  1  0
  8  6  1  0
 10  7  1  0
 11  1  1  0
 12 11  2  0
 13  7  2  3
 14 13  1  0
 15  4  2  0
 16  2  1  0
 16 12  1  6
 16 15  1  0
 17  9  3  0
 17 14  1  0
M  END
>  <ID>  (1) 
conformer_0

$$$$
