
     RDKit          3D

 16 17  0  0  0  0  0  0  0  0999 V2000
   22.8061   56.2215   86.8477 C   0  0  0  0  0  0  0  0  0  0  0  0
   21.6403   54.2824   89.8356 C   0  0  0  0  0  0  0  0  0  0  0  0
   26.9342   56.2489   90.9048 C   0  0  0  0  0  0  0  0  0  0  0  0
   22.3050   54.1223   91.0788 C   0  0  0  0  0  0  0  0  0  0  0  0
   23.2697   55.2661   89.1683 C   0  0  0  0  0  0  0  0  0  0  0  0
   23.7151   56.0159   87.8639 C   0  0  0  0  0  0  0  0  0  0  0  0
   27.3624   57.0394   89.4462 C   0  0  2  0  0  0  0  0  0  0  0  0
   24.5078   55.4403   89.9032 C   0  0  0  0  0  0  0  0  0  0  0  0
   28.7090   56.6241   90.4909 O   0  0  0  0  0  0  0  0  0  0  0  0
   23.6242   54.6207   91.2614 C   0  0  0  0  0  0  0  0  0  0  0  0
   28.0704   58.8028   88.0298 C   0  0  0  0  0  0  0  0  0  0  0  0
   28.2311   59.8678   87.4403 C   0  0  0  0  0  0  0  0  0  0  0  0
   25.7739   55.9849   89.3733 O   0  0  0  0  0  0  0  0  0  0  0  0
   28.7977   58.5740   88.1967 N   0  0  0  0  0  0  0  0  0  0  0  0
   21.5654   54.9983   88.7046 C   0  0  0  0  0  0  0  0  0  0  0  0
   21.5260   55.7092   87.4530 C   0  0  0  0  0  0  0  0  0  0  0  0
  4  2  1  0
  6  1  2  0
  6  5  1  0
  7  3  1  1
  8  5  2  0
  9  7  1  0
 10  4  2  0
 10  8  1  0
 11  7  1  0
 12 11  2  3
 13  7  1  0
 13  8  1  0
 14 11  1  0
 15  2  1  0
 15  5  1  0
 16  1  1  0
 16 15  2  0
M  END
>  <ID>  (1) 
conformer_0

$$$$
