
     RDKit          3D

 18 21  0  0  0  0  0  0  0  0999 V2000
   23.3493   54.1924   91.8145 C   0  0  0  0  0  0  0  0  0  0  0  0
   22.4967   54.3609   90.8312 C   0  0  0  0  0  0  0  0  0  0  0  0
   23.6613   55.4795   89.5192 C   0  0  0  0  0  3  0  0  0  0  0  0
   27.4168   56.5731   90.4080 C   0  0  0  0  0  0  0  0  0  0  0  0
   22.0333   54.7372   89.5809 C   0  0  0  0  0  0  0  0  0  0  0  0
   22.6720   55.7535   88.4245 C   0  0  0  0  0  0  0  0  0  0  0  0
   28.7632   57.6665   87.9729 N   0  0  0  0  0  0  0  0  0  0  0  0
   27.8962   57.1112   89.3362 C   0  0  0  0  0  0  0  0  0  0  0  0
   28.3137   59.6748   87.0346 C   0  0  0  0  0  0  0  0  0  0  0  0
   24.6521   55.4283   90.3824 C   0  0  0  0  0  0  0  0  0  0  0  0
   25.6922   56.0377   90.0814 O   0  0  0  0  0  0  0  0  0  0  0  0
   24.7030   54.7101   91.6269 C   0  0  0  0  0  0  0  0  0  0  0  0
   28.9193   56.2462   90.8628 O   0  0  0  0  0  0  0  0  0  0  0  0
   23.6177   56.1604   87.3936 C   0  0  0  0  0  0  0  0  0  0  0  0
   20.7914   55.1292   88.5816 C   0  0  0  0  0  0  0  0  0  0  0  0
   28.0513   58.3335   87.7252 C   0  0  0  0  0  0  0  0  0  0  0  0
   20.9928   55.8442   87.3054 C   0  0  0  0  0  0  0  0  0  0  0  0
   22.2876   56.3828   86.6379 C   0  0  0  0  0  3  0  0  0  0  0  0
  2  1  2  0
  5  2  1  0
  5  3  1  0
  6  3  1  0
  6  5  1  0
  8  4  1  0
  8  7  1  0
 10  3  1  0
 11  4  1  0
 11 10  1  0
 12  1  1  0
 12 10  2  0
 13  4  1  0
 14  6  1  0
 15  5  1  0
 16  7  1  0
 16  9  1  0
 17 15  2  0
 18  6  1  0
 18 14  1  0
 18 17  1  0
M  RAD  2   3   2  18   2
M  END
>  <ID>  (1) 
conformer_0

$$$$
