
     RDKit          3D

 19 22  0  0  0  0  0  0  0  0999 V2000
   21.7140   55.9257   87.3970 C   0  0  0  0  0  0  0  0  0  0  0  0
   22.6764   56.5571   86.6333 C   0  0  0  0  0  0  0  0  0  0  0  0
   21.7976   55.3614   88.4898 C   0  0  0  0  0  3  0  0  0  0  0  0
   26.8448   56.3837   91.1034 C   0  0  0  0  0  0  0  0  0  0  0  0
   22.1445   54.4567   89.9260 C   0  0  2  0  0  0  0  0  0  0  0  0
   22.2919   54.0773   91.2425 C   0  0  0  0  0  0  0  0  0  0  0  0
   27.7291   58.9091   87.1915 C   0  0  0  0  0  0  0  0  0  0  0  0
   25.8994   55.7407   89.9533 O   0  0  0  0  0  0  0  0  0  0  0  0
   28.2376   58.0950   88.6397 N   0  0  0  0  0  0  0  0  0  0  0  0
   24.6085   55.3539   90.0567 C   0  0  1  0  0  0  0  0  0  0  0  0
   23.9017   55.8479   88.3857 C   0  0  0  0  0  0  0  0  0  0  0  0
   28.1579   59.9402   86.9465 C   0  0  0  0  0  0  0  0  0  0  0  0
   29.0580   56.0177   90.7722 O   0  0  0  0  0  0  0  0  0  0  0  0
   24.0388   56.2108   86.9103 C   0  0  0  0  0  0  0  0  0  0  0  0
   27.7782   57.5620   88.6729 C   0  0  0  0  0  0  0  0  0  0  0  0
   23.3162   55.1778   89.5320 C   0  0  2  0  0  0  0  0  0  0  0  0
   23.5011   54.2506   91.9077 C   0  0  0  0  0  0  0  0  0  0  0  0
   24.5115   54.8332   91.4574 C   0  0  0  0  0  3  0  0  0  0  0  0
   27.8852   56.6316   90.1101 C   0  0  2  0  0  0  0  0  0  0  0  0
  2  1  2  0
  3  1  1  0
  5  3  1  1
  6  5  1  0
  8  4  1  0
  9  7  1  0
 10  8  1  6
 11 10  1  0
 12  7  2  3
 14  2  1  0
 14 11  2  0
 15  9  1  0
 16  3  1  1
 16  5  1  0
 16 10  1  0
 16 11  1  0
 17  6  2  0
 18 10  1  0
 18 17  1  0
 19  4  1  0
 19 13  1  1
 19 15  1  0
M  RAD  2   3   2  18   2
M  END
>  <ID>  (1) 
conformer_0

$$$$
