
     RDKit          3D

 16 17  0  0  0  0  0  0  0  0999 V2000
   21.7926   55.2371   88.7785 C   0  0  2  0  0  0  0  0  0  0  0  0
   22.5016   56.3323   86.4566 C   0  0  0  0  0  0  0  0  0  0  0  0
   21.9217   54.3488   90.1301 C   0  0  0  0  0  0  0  0  0  0  0  0
   27.1037   56.6177   90.6461 C   0  0  0  0  0  0  0  0  0  0  0  0
   22.5600   54.0542   91.2632 C   0  0  0  0  0  0  0  0  0  0  0  0
   21.3349   55.8218   87.3772 C   0  0  0  0  0  0  0  0  0  0  0  0
   25.3182   56.1216   89.8813 O   0  0  0  0  0  0  0  0  0  0  0  0
   27.7567   57.0497   89.5351 C   0  0  2  0  0  0  0  0  0  0  0  0
   28.3614   59.1276   87.3161 C   0  0  0  0  0  0  0  0  0  0  0  0
   28.9720   55.9443   90.5294 O   0  0  0  0  0  0  0  0  0  0  0  0
   23.2061   55.6130   88.9248 C   0  0  0  0  0  0  0  0  0  0  0  0
   23.6005   56.2573   87.2576 C   0  0  0  0  0  0  0  0  0  0  0  0
   24.2859   55.5024   89.9689 C   0  0  0  0  0  0  0  0  0  0  0  0
   28.9739   59.6279   89.4729 O   0  0  0  0  0  0  0  0  0  0  0  0
   28.2547   58.5119   88.4027 C   0  0  0  0  0  0  0  0  0  0  0  0
   23.9184   54.5834   91.2972 C   0  0  0  0  0  0  0  0  0  0  0  0
  1  3  1  6
  5  3  2  0
  6  1  1  0
  6  2  2  0
  7  4  1  0
  8  4  1  0
  8 10  1  1
 11  1  1  0
 12  2  1  0
 12 11  2  0
 13  7  1  0
 13 11  1  0
 15  8  1  0
 15  9  2  3
 15 14  1  0
 16  5  1  0
 16 13  2  0
M  END
>  <ID>  (1) 
conformer_0

$$$$
