
     RDKit          3D

 15 16  0  0  0  0  0  0  0  0999 V2000
   22.8383   54.3140   91.0885 C   0  0  0  0  0  0  0  0  0  0  0  0
   24.1530   54.8796   91.1372 C   0  0  0  0  0  0  0  0  0  0  0  0
   27.6443   57.2332   89.2788 C   0  0  0  0  0  0  0  0  0  0  0  0
   22.0311   54.3836   89.9490 C   0  0  0  0  0  0  0  0  0  0  0  0
   23.3859   55.3801   89.1880 C   0  0  0  0  0  0  0  0  0  0  0  0
   27.9521   58.5341   87.8300 C   0  0  0  0  0  0  0  0  0  0  0  0
   25.9393   56.0167   89.7598 O   0  0  0  0  0  0  0  0  0  0  0  0
   23.5744   56.0780   88.1398 C   0  0  0  0  0  0  0  0  0  0  0  0
   28.5210   59.6324   87.1511 C   0  0  0  0  0  0  0  0  0  0  0  0
   24.7638   55.6443   89.9244 C   0  0  0  0  0  0  0  0  0  0  0  0
   28.8151   57.2668   90.7451 O   0  0  0  0  0  0  0  0  0  0  0  0
   21.2922   54.7194   88.9084 C   0  0  0  0  0  0  0  0  0  0  0  0
   21.1423   55.4501   87.7767 C   0  0  0  0  0  0  0  0  0  0  0  0
   22.3422   56.1362   87.2421 C   0  0  0  0  0  0  0  0  0  0  0  0
   27.3581   56.4105   90.7467 C   0  0  0  0  0  0  0  0  0  0  0  0
  2  1  2  0
  4  1  1  0
  5  4  1  0
  6  3  3  0
  8  5  1  0
  9  6  1  0
 10  2  1  0
 10  5  2  0
 10  7  1  0
 12  4  1  0
 13 12  2  0
 14  8  2  0
 14 13  1  0
 15  3  1  0
 15  7  1  0
 15 11  1  0
M  END
>  <ID>  (1) 
conformer_0

$$$$
