
     RDKit          3D

 18 20  0  0  0  0  0  0  0  0999 V2000
   27.1407   56.3285   90.5328 C   0  0  0  0  0  0  0  0  0  0  0  0
   22.3072   54.7356   89.7120 C   0  0  0  0  0  0  0  0  0  0  0  0
   21.7258   54.0514   90.7464 C   0  0  0  0  0  0  0  0  0  0  0  0
   21.6388   55.3301   88.5340 C   0  0  0  0  0  0  0  0  0  0  0  0
   28.7959   59.8799   87.4822 C   0  0  0  0  0  0  0  0  0  0  0  0
   22.7018   54.0131   91.8470 C   0  0  0  0  0  0  0  0  0  0  0  0
   25.3450   55.7509   90.2693 O   0  0  0  0  0  0  0  0  0  0  0  0
   24.2236   55.3248   90.2912 C   0  0  0  0  0  3  0  0  0  0  0  0
   23.9618   54.6013   91.6307 C   0  0  0  0  0  0  0  0  0  0  0  0
   28.8562   56.1592   90.6567 O   0  0  0  0  0  0  0  0  0  0  0  0
   27.6995   56.8174   89.5058 C   0  0  0  0  0  0  0  0  0  0  0  0
   28.4090   57.8001   88.2247 N   0  0  0  0  0  0  0  0  0  0  0  0
   22.7405   56.4299   86.6671 C   0  0  0  0  0  0  0  0  0  0  0  0
   21.6265   55.9413   87.2808 C   0  0  0  0  0  0  0  0  0  0  0  0
   28.0947   58.2672   88.0626 C   0  0  0  0  0  0  0  0  0  0  0  0
   27.9537   59.7832   86.3311 C   0  0  0  0  0  0  0  0  0  0  0  0
   23.3899   55.5809   89.0985 C   0  0  0  0  0  0  0  0  0  0  0  0
   23.8180   56.3679   87.6492 C   0  0  0  0  0  0  0  0  0  0  0  0
  3  2  2  0
  4  2  1  0
  6  3  1  0
  7  1  1  0
  8  7  1  0
  9  6  2  0
  9  8  1  0
 10  1  1  0
 11  1  1  0
 12 11  1  0
 14  4  2  0
 14 13  1  0
 15  5  1  0
 15 12  1  0
 16  5  1  0
 17  2  1  0
 17  4  1  0
 17  8  1  0
 18 13  2  0
 18 17  1  0
M  RAD  1   8   2
M  END
>  <ID>  (1) 
conformer_0

$$$$
