
     RDKit          3D

 18 20  0  0  0  0  0  0  0  0999 V2000
   22.7533   55.0817   89.3020 C   0  0  0  0  0  0  0  0  0  0  0  0
   21.1810   55.5749   87.8723 C   0  0  0  0  0  0  0  0  0  0  0  0
   27.4189   56.5154   90.5270 C   0  0  0  0  0  0  0  0  0  0  0  0
   22.1426   54.3336   90.4144 C   0  0  0  0  0  0  0  0  0  0  0  0
   23.1916   54.4930   91.3484 C   0  0  0  0  0  0  0  0  0  0  0  0
   24.4660   54.8863   91.3976 C   0  0  0  0  0  0  0  0  0  0  0  0
   24.6924   55.5460   90.1210 C   0  0  0  0  0  0  0  0  0  0  0  0
   28.9148   55.7876   90.5686 O   0  0  0  0  0  0  0  0  0  0  0  0
   27.9015   57.0947   89.2988 C   0  0  0  0  0  0  0  0  0  0  0  0
   25.8048   55.8887   89.9843 O   0  0  0  0  0  0  0  0  0  0  0  0
   28.0800   59.7793   86.4156 C   0  0  0  0  0  0  0  0  0  0  0  0
   28.8295   57.8420   88.0632 N   0  0  0  0  0  0  0  0  0  0  0  0
   21.1650   54.7727   88.9952 C   0  0  0  0  0  0  0  0  0  0  0  0
   28.0770   60.1033   88.4976 O   0  0  0  0  0  0  0  0  0  0  0  0
   28.1881   58.8545   87.6763 C   0  0  0  0  0  0  0  0  0  0  0  0
   23.8963   55.7098   88.6849 C   0  0  0  0  0  0  0  0  0  0  0  0
   22.1210   56.2027   87.0892 C   0  0  0  0  0  0  0  0  0  0  0  0
   23.4443   56.2625   87.4261 C   0  0  0  0  0  0  0  0  0  0  0  0
  4  1  2  0
  5  4  1  0
  6  5  2  0
  7  6  1  0
  8  3  1  0
  9  3  1  0
 10  3  1  0
 10  7  1  0
 12  9  1  0
 13  1  1  0
 13  2  2  0
 13  4  1  0
 15 11  1  0
 15 12  1  0
 15 14  1  0
 16  1  1  0
 16  7  2  0
 17  2  1  0
 18 16  1  0
 18 17  2  0
M  END
>  <ID>  (1) 
conformer_0

$$$$
