
     RDKit          3D

 17 19  0  0  0  0  0  0  0  0999 V2000
   23.8297   56.1175   87.8416 C   0  0  0  0  0  0  0  0  0  0  0  0
   24.0036   54.5401   91.3419 C   0  0  0  0  0  0  0  0  0  0  0  0
   26.5790   56.3778   90.6735 C   0  0  0  0  0  0  0  0  0  0  0  0
   22.5932   54.0434   91.4382 C   0  0  0  0  0  0  0  0  0  0  0  0
   21.8477   54.3483   90.2494 C   0  0  0  0  0  3  0  0  0  0  0  0
   27.7529   56.9369   90.0299 C   0  0  1  0  0  0  0  0  0  0  0  0
   28.7692   59.4827   87.7673 C   0  0  0  0  0  0  0  0  0  0  0  0
   24.2450   55.4454   89.7252 C   0  0  1  0  0  0  0  0  0  0  0  0
   25.4216   55.7852   89.6047 O   0  0  0  0  0  0  0  0  0  0  0  0
   22.6897   56.2657   87.0821 C   0  0  0  0  0  0  0  0  0  0  0  0
   28.6837   56.4188   90.8394 O   0  0  0  0  0  0  0  0  0  0  0  0
   28.5015   57.6109   88.7060 N   0  0  0  0  0  0  0  0  0  0  0  0
   21.3623   55.0622   88.8085 C   0  0  0  0  0  0  0  0  0  0  0  0
   21.4052   55.7560   87.6128 C   0  0  0  0  0  0  0  0  0  0  0  0
   27.6739   57.6891   88.7202 C   0  0  2  0  0  0  0  0  0  0  0  0
   22.9801   55.2106   89.2911 C   0  0  1  0  0  0  0  0  0  0  0  0
   28.2736   59.1866   87.7613 C   0  0  0  0  0  0  0  0  0  0  0  0
  4  2  2  0
  5  4  1  0
  6  3  1  0
  8  2  1  0
  9  3  1  0
  8  9  1  6
 10  1  2  0
  6 11  1  6
 13  5  1  0
 14 10  1  0
 14 13  2  0
 15  6  1  0
 15 12  1  6
 16  1  1  6
 16  5  1  0
 16  8  1  0
 16 13  1  0
 17  7  2  3
 17 15  1  0
M  RAD  1   5   2
M  END
>  <ID>  (1) 
conformer_0

$$$$
