
     RDKit          3D

 15 16  0  0  0  0  0  0  0  0999 V2000
   23.4001   55.5619   88.7830 C   0  0  0  0  0  0  0  0  0  0  0  0
   21.1264   55.3605   88.0899 C   0  0  0  0  0  0  0  0  0  0  0  0
   27.0203   56.4108   90.4611 C   0  0  0  0  0  0  0  0  0  0  0  0
   21.7331   54.7671   89.2566 C   0  0  0  0  0  0  0  0  0  0  0  0
   23.2492   56.0814   87.5337 C   0  0  0  0  0  0  0  0  0  0  0  0
   27.7690   56.9829   89.6072 C   0  0  0  0  0  0  0  0  0  0  0  0
   21.9318   56.0675   86.9907 C   0  0  0  0  0  0  0  0  0  0  0  0
   25.3983   55.7615   90.1388 O   0  0  0  0  0  0  0  0  0  0  0  0
   28.8900   56.0966   90.7444 O   0  0  0  0  0  0  0  0  0  0  0  0
   24.2656   55.3391   90.1197 C   0  0  0  0  0  0  0  0  0  0  0  0
   28.1609   59.5025   86.8822 C   0  0  0  0  0  0  0  0  0  0  0  0
   28.1244   58.5401   88.3261 C   0  0  0  0  0  0  0  0  0  0  0  0
   22.2135   54.3399   90.4345 C   0  0  0  0  0  0  0  0  0  0  0  0
   23.4358   54.5652   91.1503 C   0  0  0  0  0  0  0  0  0  0  0  0
   28.5521   58.0696   88.7354 N   0  0  0  0  0  0  0  0  0  0  0  0
  4  1  1  0
  4  2  2  0
  5  1  1  0
  6  3  1  0
  7  2  1  0
  7  5  2  0
  8  3  1  0
  9  6  1  0
 10  1  2  0
 10  8  1  0
 12 11  1  0
 13  4  1  0
 14 10  1  0
 14 13  2  0
 15  6  1  0
 15 12  1  0
M  END
>  <ID>  (1) 
conformer_0

$$$$
