
     RDKit          3D

 17 19  0  0  0  0  0  0  0  0999 V2000
   27.4378   56.7629   90.5140 C   0  0  0  0  0  0  0  0  0  0  0  0
   21.5730   55.9473   87.3585 C   0  0  0  0  0  0  0  0  0  0  0  0
   23.2628   55.3492   89.2043 C   0  0  0  0  0  0  0  0  0  0  0  0
   23.1195   54.1052   91.8219 C   0  0  0  0  0  0  0  0  0  0  0  0
   21.6380   55.3016   88.5680 C   0  0  0  0  0  0  0  0  0  0  0  0
   21.9234   53.9600   90.9860 C   0  0  0  0  0  0  0  0  0  0  0  0
   25.5806   55.8527   89.6827 O   0  0  0  0  0  0  0  0  0  0  0  0
   27.6170   56.9772   89.3827 C   0  0  0  0  0  0  0  0  0  0  0  0
   24.3382   55.4371   89.7467 C   0  0  0  0  0  3  0  0  0  0  0  0
   28.6603   60.0492   87.3745 C   0  0  0  0  0  0  0  0  0  0  0  0
   22.8517   56.4025   86.7416 C   0  0  0  0  0  0  0  0  0  0  0  0
   23.8849   56.0854   87.6173 C   0  0  0  0  0  0  0  0  0  0  0  0
   28.3862   58.4405   88.0200 C   0  0  0  0  0  0  0  0  0  0  0  0
   29.0187   56.9469   90.6788 O   0  0  0  0  0  0  0  0  0  0  0  0
   28.5234   57.9303   89.1683 N   0  0  0  0  0  0  0  0  0  0  0  0
   22.1177   54.5423   89.7821 C   0  0  0  0  0  0  0  0  0  0  0  0
   24.1796   54.7571   91.3767 C   0  0  0  0  0  0  0  0  0  0  0  0
  5  2  2  0
  5  3  1  0
  6  4  1  0
  7  1  1  0
  8  1  1  0
  9  3  1  0
  9  7  1  0
 11  2  1  0
 12  3  1  0
 12 11  2  0
 13 10  1  0
 14  1  1  0
 15  8  1  0
 15 13  1  0
 16  3  1  0
 16  5  1  0
 16  6  2  0
 17  4  2  0
 17  9  1  0
M  RAD  1   9   2
M  END
>  <ID>  (1) 
conformer_0

$$$$
