
     RDKit          3D

 17 19  0  0  0  0  0  0  0  0999 V2000
   23.0751   55.3357   89.1016 C   0  0  0  0  0  0  0  0  0  0  0  0
   21.7963   54.2322   90.1158 C   0  0  0  0  0  0  0  0  0  0  0  0
   26.9246   56.4993   90.6923 C   0  0  0  0  0  0  0  0  0  0  0  0
   22.4305   54.0939   91.2749 C   0  0  0  0  0  0  0  0  0  0  0  0
   23.7308   56.2423   87.7521 C   0  0  0  0  0  0  0  0  0  0  0  0
   28.5752   60.0530   87.3653 C   0  0  0  0  0  0  0  0  0  0  0  0
   25.3396   55.7069   90.0176 O   0  0  0  0  0  0  0  0  0  0  0  0
   27.7290   56.9735   89.9037 C   0  0  0  0  0  0  0  0  0  0  0  0
   24.1429   55.3161   89.9910 C   0  0  0  0  0  0  0  0  0  0  0  0
   28.4917   58.4911   89.2143 N   0  0  0  0  0  0  0  0  0  0  0  0
   23.8122   54.5715   91.4908 C   0  0  0  0  0  0  0  0  0  0  0  0
   28.9256   55.8635   90.4314 O   0  0  0  0  0  0  0  0  0  0  0  0
   21.5448   54.9848   88.7691 C   0  0  0  0  0  0  0  0  0  0  0  0
   28.1462   58.6288   88.3988 C   0  0  0  0  0  0  0  0  0  0  0  0
   21.4465   55.7520   87.5580 C   0  0  0  0  0  0  0  0  0  0  0  0
   22.5770   56.3382   86.8578 C   0  0  0  0  0  0  0  0  0  0  0  0
   27.6847   58.8172   86.5908 C   0  0  0  0  0  0  0  0  0  0  0  0
  4  2  2  0
  5  1  2  0
  7  3  1  0
  8  3  1  0
  9  1  1  0
  9  7  1  0
 10  8  1  0
 11  4  1  0
 11  9  2  0
 12  8  1  0
 13  1  1  0
 13  2  1  0
 14  6  1  0
 14 10  1  0
 15 13  1  0
 16  5  1  0
 16 15  2  0
 17  6  1  0
 17 14  1  0
M  END
>  <ID>  (1) 
conformer_0

$$$$
