
     RDKit          3D

 19 23  0  0  0  0  0  0  0  0999 V2000
   23.2194   54.3542   91.6502 C   0  0  0  0  0  0  0  0  0  0  0  0
   21.5339   54.7230   89.2267 C   0  0  0  0  0  3  0  0  0  0  0  0
   27.0381   56.7194   90.9115 C   0  0  0  0  0  0  0  0  0  0  0  0
   27.8814   59.2730   86.4783 C   0  0  0  0  0  0  0  0  0  0  0  0
   24.4344   54.9647   91.1945 C   0  0  0  0  0  3  0  0  0  0  0  0
   22.8630   55.0353   89.6340 C   0  0  0  0  0  0  0  0  0  0  0  0
   20.9822   55.3325   88.1291 C   0  0  0  0  0  0  0  0  0  0  0  0
   27.4654   57.2073   89.5870 C   0  0  0  0  0  0  0  0  0  0  0  0
   24.4684   55.6231   89.8131 C   0  0  0  0  0  0  0  0  0  0  0  0
   25.5875   56.0540   89.5420 O   0  0  0  0  0  0  0  0  0  0  0  0
   28.6940   57.2932   87.4209 N   0  0  0  0  0  0  0  0  0  0  0  0
   28.6373   56.5790   90.8418 O   0  0  0  0  0  0  0  0  0  0  0  0
   22.0106   54.1481   90.8580 C   0  0  0  0  0  0  0  0  0  0  0  0
   23.4002   55.9577   88.5322 C   0  0  0  0  0  0  0  0  0  0  0  0
   27.9390   58.2239   88.0550 C   0  0  0  0  0  0  0  0  0  0  0  0
   28.7851   59.8816   87.2579 C   0  0  0  0  0  0  0  0  0  0  0  0
   22.9382   56.4738   87.1819 C   0  0  0  0  0  0  0  0  0  0  0  0
   21.5984   55.9974   87.0400 C   0  0  0  0  0  0  0  0  0  0  0  0
   28.4906   58.2298   89.3233 N   0  0  0  0  0  0  0  0  0  0  0  0
  5  1  1  0
  6  2  1  0
  7  2  1  0
  8  3  1  0
  9  5  1  0
  9  6  1  0
 10  3  1  0
 10  9  1  0
 12  3  1  0
 13  1  2  0
 13  2  1  0
 13  6  1  0
 14  6  1  0
 14  9  1  0
 15  4  1  0
 15  8  1  0
 15 11  1  0
 16  4  1  0
 17 14  2  0
 18  7  2  0
 18 17  1  0
 19  8  1  0
 19 15  1  0
M  RAD  2   2   2   5   2
M  END
>  <ID>  (1) 
conformer_0

$$$$
