
     RDKit          3D

 19 22  0  0  0  0  0  0  0  0999 V2000
   23.4810   56.3458   87.7004 C   0  0  0  0  0  0  0  0  0  0  0  0
   21.0036   54.8789   88.7497 C   0  0  0  0  0  0  0  0  0  0  0  0
   26.9098   56.4410   90.8073 C   0  0  0  0  0  0  0  0  0  0  0  0
   22.1809   54.2074   90.4138 C   0  0  0  0  0  0  0  0  0  0  0  0
   23.5602   55.5258   89.0628 C   0  0  0  0  0  0  0  0  0  0  0  0
   27.9101   56.9559   89.8944 C   0  0  0  0  0  0  0  0  0  0  0  0
   29.0634   57.5010   87.3822 N   0  0  0  0  0  0  0  0  0  0  0  0
   24.5836   55.4183   90.2276 C   0  0  0  0  0  0  0  0  0  0  0  0
   25.5467   55.8699   89.9291 O   0  0  0  0  0  0  0  0  0  0  0  0
   28.4778   59.8068   86.5802 C   0  0  0  0  0  0  0  0  0  0  0  0
   28.8113   56.0217   90.6893 O   0  0  0  0  0  0  0  0  0  0  0  0
   23.1062   54.3079   91.4493 C   0  0  0  0  0  0  0  0  0  0  0  0
   24.4861   54.7016   91.5362 C   0  0  0  0  0  0  0  0  0  0  0  0
   27.6692   57.4544   88.5808 C   0  0  0  0  0  0  0  0  0  0  0  0
   22.2957   56.3493   87.0584 C   0  0  0  0  0  0  0  0  0  0  0  0
   21.1558   55.7668   87.5744 C   0  0  0  0  0  0  0  0  0  0  0  0
   28.5131   58.3127   89.2750 N   0  0  0  0  0  0  0  0  0  0  0  0
   28.5172   58.8674   87.6031 C   0  0  0  0  0  0  0  0  0  0  0  0
   22.3577   54.9674   89.2626 C   0  0  0  0  0  0  0  0  0  0  0  0
  5  1  2  0
  6  3  1  0
  8  5  1  0
  9  3  1  0
  9  8  1  0
 11  6  1  0
 12  4  2  0
 13  8  2  0
 13 12  1  0
 14  6  1  0
 14  7  1  0
 15  1  1  0
 16  2  1  0
 16 15  2  0
 17  6  1  0
 17 14  1  0
 18  7  1  0
 18 10  1  0
 18 14  1  0
 19  2  2  0
 19  4  1  0
 19  5  1  0
M  END
>  <ID>  (1) 
conformer_0

$$$$
