
     RDKit          3D

 20 23  0  0  0  0  0  0  0  0999 V2000
   23.4309   55.7769   89.1692 C   0  0  1  0  0  0  0  0  0  0  0  0
   22.9775   54.1433   91.8520 C   0  0  0  0  0  0  0  0  0  0  0  0
   26.8489   56.3342   90.8639 C   0  0  0  0  0  0  0  0  0  0  0  0
   24.2884   54.6754   91.6093 C   0  0  0  0  0  0  0  0  0  0  0  0
   21.7590   54.2442   90.6428 C   0  0  0  0  0  0  0  0  0  0  0  0
   27.6217   56.8377   89.7267 C   0  0  0  0  0  0  0  0  0  0  0  0
   24.4963   55.3947   90.3060 C   0  0  1  0  0  0  0  0  0  0  0  0
   22.7534   54.6352   89.9751 C   0  0  2  0  0  0  0  0  0  0  0  0
   23.5489   56.0116   87.8325 C   0  0  0  0  0  3  0  0  0  0  0  0
   28.7995   56.4686   90.7076 O   0  0  0  0  0  0  0  0  0  0  0  0
   27.9561   59.3153   86.4916 C   0  0  0  0  0  0  0  0  0  0  0  0
   25.6387   55.7961   90.1231 O   0  0  0  0  0  0  0  0  0  0  0  0
   29.3953   58.1572   87.5144 N   0  0  0  0  0  0  0  0  0  0  0  0
   29.0491   59.7593   88.7247 O   0  0  0  0  0  0  0  0  0  0  0  0
   27.8596   57.4187   88.3056 C   0  0  0  0  0  0  0  0  0  0  0  0
   22.5231   56.6394   87.0176 C   0  0  0  0  0  0  0  0  0  0  0  0
   21.2038   55.9142   87.0146 C   0  0  0  0  0  0  0  0  0  0  0  0
   28.6390   58.9722   87.3838 C   0  0  0  0  0  0  0  0  0  0  0  0
   21.8389   55.0870   88.6863 C   0  0  0  0  0  0  0  0  0  0  0  0
   20.6951   55.1778   88.4794 C   0  0  0  0  0  0  0  0  0  0  0  0
  4  2  2  0
  5  2  1  0
  6  3  1  0
  7  1  1  0
  7  4  1  0
  8  1  1  0
  8  5  1  1
  8  7  1  0
  1  9  1  6
 10  6  1  0
 12  3  1  0
  7 12  1  6
 15  6  2  3
 15 13  1  0
 16  9  1  0
 17 16  2  0
 18 11  2  3
 18 13  1  0
 18 14  1  0
 19  1  1  0
 19  8  1  0
 20 17  1  0
 20 19  2  0
M  RAD  1   9   2
M  END
>  <ID>  (1) 
conformer_0

$$$$
