
     RDKit          3D

 17 18  0  0  0  0  0  0  0  0999 V2000
   21.0755   54.7012   88.9633 C   0  0  0  0  0  0  0  0  0  0  0  0
   26.8890   56.3100   91.0281 C   0  0  0  0  0  0  0  0  0  0  0  0
   22.8755   54.3622   91.2074 C   0  0  0  0  0  0  0  0  0  0  0  0
   24.2176   54.9216   91.1490 C   0  0  0  0  0  0  0  0  0  0  0  0
   23.0520   55.2070   89.1900 C   0  0  0  0  0  0  0  0  0  0  0  0
   27.6231   56.7306   89.9590 C   0  0  2  0  0  0  0  0  0  0  0  0
   24.6393   55.6501   89.8070 C   0  0  0  0  0  0  0  0  0  0  0  0
   25.7510   56.0754   89.5282 O   0  0  0  0  0  0  0  0  0  0  0  0
   23.5369   55.7697   88.1345 C   0  0  0  0  0  0  0  0  0  0  0  0
   28.7516   56.5230   90.8282 O   0  0  0  0  0  0  0  0  0  0  0  0
   27.5853   57.7362   88.4491 C   0  0  2  0  0  0  0  0  0  0  0  0
   21.9140   54.3797   90.0359 C   0  0  0  0  0  0  0  0  0  0  0  0
   28.0895   59.4494   86.9554 C   0  0  0  0  0  0  0  0  0  0  0  0
   28.2945   57.6825   88.3964 N   0  0  0  0  0  0  0  0  0  0  0  0
   21.0155   55.4813   87.7773 C   0  0  0  0  0  0  0  0  0  0  0  0
   22.2770   55.9655   87.2548 C   0  0  0  0  0  0  0  0  0  0  0  0
   28.1916   59.3656   87.0518 C   0  0  0  0  0  0  0  0  0  0  0  0
  4  3  2  0
  6  2  1  0
  7  4  1  0
  7  5  2  0
  8  2  1  0
  8  7  1  0
  9  5  1  0
  6 10  1  1
 11  6  1  0
 12  1  2  0
 12  3  1  0
 12  5  1  0
 11 14  1  6
 15  1  1  0
 16  9  2  0
 16 15  1  0
 17 11  1  0
 17 13  2  3
M  END
>  <ID>  (1) 
conformer_0

$$$$
