
     RDKit          3D

 19 20  0  0  0  0  0  0  0  0999 V2000
   21.2077   55.0116   88.6089 C   0  0  0  0  0  0  0  0  0  0  0  0
   22.7449   54.1626   91.5095 C   0  0  0  0  0  0  0  0  0  0  0  0
   27.8944   57.6341   88.5451 C   0  0  0  0  0  0  0  0  0  0  0  0
   24.1230   54.6315   91.3616 C   0  0  0  0  0  0  0  0  0  0  0  0
   21.7260   54.1206   90.4282 C   0  0  0  0  0  0  0  0  0  0  0  0
   21.2689   55.7508   87.4309 C   0  0  0  0  0  0  0  0  0  0  0  0
   24.4204   55.4085   90.0756 C   0  0  0  0  0  0  0  0  0  0  0  0
   28.2757   59.7783   86.8374 C   0  0  0  0  0  0  0  0  0  0  0  0
   28.6894   59.7485   87.7682 C   0  0  0  0  0  0  0  0  0  0  0  0
   25.5216   55.8318   90.0233 O   0  0  0  0  0  0  0  0  0  0  0  0
   28.8684   56.0832   90.6049 O   0  0  0  0  0  0  0  0  0  0  0  0
   22.4429   54.8291   89.4766 C   0  0  0  0  0  0  0  0  0  0  0  0
   29.6535   59.8481   88.8765 O   0  0  0  0  0  0  0  0  0  0  0  0
   28.4247   58.3324   88.8993 N   0  0  0  0  0  0  0  0  0  0  0  0
   27.8803   56.6029   89.9240 C   0  0  1  0  0  0  0  0  0  0  0  0
   23.3905   55.5779   88.8170 C   0  0  0  0  0  0  0  0  0  0  0  0
   22.3574   56.3939   86.8139 C   0  0  0  0  0  0  0  0  0  0  0  0
   23.5924   56.4332   87.6452 C   0  0  0  0  0  0  0  0  0  0  0  0
   26.8851   56.2867   91.0448 C   0  0  0  0  0  0  0  0  0  0  0  0
  4  2  2  0
  5  2  1  0
  6  1  2  0
  7  4  1  0
  9  8  2  3
 10  7  1  0
 12  1  1  0
 12  5  2  0
 13  9  1  0
 14  3  1  0
 14  9  1  0
 15  3  1  0
 15 11  1  1
 16  7  2  0
 16 12  1  0
 17  6  1  0
 18 16  1  0
 18 17  2  0
 19 10  1  0
 19 15  1  0
M  END
>  <ID>  (1) 
conformer_0

$$$$
