
     RDKit          3D

 16 16  0  0  0  0  0  0  0  0999 V2000
   22.4138   54.3741   90.3638 C   0  0  0  0  0  0  0  0  0  0  0  0
   21.7271   54.6236   89.3814 C   0  0  0  0  0  0  0  0  0  0  0  0
   23.3018   56.2627   87.9161 C   0  0  0  0  0  0  0  0  0  0  0  0
   27.8109   57.2556   89.4562 C   0  0  0  0  0  0  0  0  0  0  0  0
   27.1293   56.5603   90.7430 C   0  0  0  0  0  0  0  0  0  0  0  0
   23.6070   55.6783   88.9504 C   0  0  0  0  0  0  0  0  0  0  0  0
   28.8540   57.2343   87.8121 N   0  0  0  0  0  0  0  0  0  0  0  0
   24.6159   55.5191   90.1678 C   0  0  0  0  0  0  0  0  0  0  0  0
   25.6351   55.9430   90.0054 O   0  0  0  0  0  0  0  0  0  0  0  0
   23.6848   54.6454   91.0797 C   0  0  0  0  0  0  0  0  0  0  0  0
   28.4527   55.9190   90.9270 O   0  0  0  0  0  0  0  0  0  0  0  0
   28.2848   59.7820   86.6699 C   0  0  0  0  0  0  0  0  0  0  0  0
   28.1022   58.5687   87.6655 C   0  0  0  0  0  0  0  0  0  0  0  0
   21.1456   55.2099   88.2980 C   0  0  0  0  0  0  0  0  0  0  0  0
   21.9089   56.1300   87.4146 C   0  0  0  0  0  0  0  0  0  0  0  0
   28.5885   58.6495   89.8968 O   0  0  0  0  0  0  0  0  0  0  0  0
  2  1  2  0
  5  4  1  0
  6  3  2  0
  7  4  1  0
  8  6  1  0
  9  5  1  0
  9  8  1  0
 10  1  1  0
 10  8  2  0
 11  5  1  0
 13  7  1  0
 13 12  1  0
 14  2  2  0
 15  3  1  0
 15 14  1  0
 16  4  1  0
M  END
>  <ID>  (1) 
conformer_0

$$$$
