
     RDKit          3D

 15 16  0  0  0  0  0  0  0  0999 V2000
   23.3663   55.6362   89.0423 C   0  0  0  0  0  0  0  0  0  0  0  0
   21.8570   54.7945   89.4582 C   0  0  0  0  0  0  0  0  0  0  0  0
   22.1619   54.1890   90.7397 C   0  0  0  0  0  0  0  0  0  0  0  0
   27.0936   56.2853   90.7545 C   0  0  0  0  0  0  0  0  0  0  0  0
   23.3318   54.4022   91.4575 C   0  0  0  0  0  0  0  0  0  0  0  0
   27.8310   56.8777   89.5447 C   0  0  0  0  0  0  0  0  0  0  0  0
   25.3623   55.8203   90.2711 O   0  0  0  0  0  0  0  0  0  0  0  0
   23.4143   56.4025   87.7255 C   0  0  0  0  0  0  0  0  0  0  0  0
   24.2929   55.3306   90.3701 C   0  0  0  0  0  0  0  0  0  0  0  0
   28.7061   59.7127   87.0270 C   0  0  0  0  0  0  0  0  0  0  0  0
   28.9979   55.9960   90.5628 O   0  0  0  0  0  0  0  0  0  0  0  0
   21.2718   55.4728   88.1816 C   0  0  0  0  0  0  0  0  0  0  0  0
   21.9920   56.2579   87.2246 C   0  0  0  0  0  0  0  0  0  0  0  0
   28.1847   58.3315   88.0016 C   0  0  0  0  0  0  0  0  0  0  0  0
   29.5756   57.8616   87.4428 O   0  0  0  0  0  0  0  0  0  0  0  0
  2  1  1  0
  3  2  2  0
  5  3  1  0
  6  4  1  0
  7  4  1  0
  8  1  2  0
  9  1  1  0
  9  5  2  0
  9  7  1  0
 11  6  1  0
 12  2  1  0
 13  8  1  0
 13 12  2  0
 14  6  1  0
 14 10  1  0
 15 14  1  0
M  END
>  <ID>  (1) 
conformer_0

$$$$
