
     RDKit          3D

 17 19  0  0  0  0  0  0  0  0999 V2000
   24.0291   55.7339   88.8685 C   0  0  0  0  0  0  0  0  0  0  0  0
   27.1984   56.4895   90.5233 C   0  0  0  0  0  0  0  0  0  0  0  0
   21.7001   54.2103   89.9458 C   0  0  0  0  0  0  0  0  0  0  0  0
   22.6380   55.1872   89.0276 C   0  0  0  0  0  0  0  0  0  0  0  0
   23.6546   56.1673   87.5969 C   0  0  0  0  0  0  0  0  0  0  0  0
   20.9509   54.8148   88.7705 C   0  0  0  0  0  0  0  0  0  0  0  0
   27.8518   57.1058   89.6074 C   0  0  0  0  0  0  0  0  0  0  0  0
   28.4818   60.2749   87.2167 C   0  0  0  0  0  0  0  0  0  0  0  0
   24.4273   55.4818   90.1244 C   0  0  0  0  0  0  0  0  0  0  0  0
   25.5479   55.9605   90.1783 O   0  0  0  0  0  0  0  0  0  0  0  0
   28.8866   55.8683   90.6572 O   0  0  0  0  0  0  0  0  0  0  0  0
   22.5572   54.2564   90.9856 C   0  0  0  0  0  0  0  0  0  0  0  0
   23.9614   54.7190   91.2016 C   0  0  0  0  0  0  0  0  0  0  0  0
   28.1527   58.8028   88.1599 C   0  0  0  0  0  0  0  0  0  0  0  0
   28.2749   58.0980   88.9780 N   0  0  0  0  0  0  0  0  0  0  0  0
   21.1785   55.6288   87.6099 C   0  0  0  0  0  0  0  0  0  0  0  0
   22.3359   56.1137   86.9843 C   0  0  0  0  0  0  0  0  0  0  0  0
  4  1  1  0
  4  3  1  0
  5  1  2  0
  6  3  1  0
  6  4  2  0
  7  2  1  0
  9  1  1  0
 10  2  1  0
 10  9  1  0
 11  2  1  0
 12  3  2  0
 13  9  2  0
 13 12  1  0
 14  8  1  0
 15  7  1  0
 15 14  1  0
 16  6  1  0
 17  5  1  0
 17 16  2  0
M  END
>  <ID>  (1) 
conformer_0

$$$$
