
     RDKit          3D

 14 15  0  0  0  0  0  0  0  0999 V2000
   23.2945   56.3259   87.4578 C   0  0  0  0  0  0  0  0  0  0  0  0
   22.1154   54.5496   89.7484 C   0  0  0  0  0  0  0  0  0  0  0  0
   23.4564   55.6272   88.8547 C   0  0  0  0  0  0  0  0  0  0  0  0
   26.9527   56.5666   90.2725 C   0  0  0  0  0  0  0  0  0  0  0  0
   22.5553   54.2467   91.0042 C   0  0  0  0  0  0  0  0  0  0  0  0
   27.5068   57.2689   89.4138 C   0  0  0  0  0  0  0  0  0  0  0  0
   25.4048   56.0003   89.8018 O   0  0  0  0  0  0  0  0  0  0  0  0
   24.3827   55.5040   90.0209 C   0  0  0  0  0  0  0  0  0  0  0  0
   23.7996   54.6753   91.4651 C   0  0  0  0  0  0  0  0  0  0  0  0
   28.5901   55.8614   90.5451 O   0  0  0  0  0  0  0  0  0  0  0  0
   28.3794   59.6655   86.9164 C   0  0  0  0  0  0  0  0  0  0  0  0
   21.4991   55.0814   88.5199 C   0  0  0  0  0  0  0  0  0  0  0  0
   21.8173   55.8794   87.3108 C   0  0  0  0  0  0  0  0  0  0  0  0
   28.0077   58.6847   87.6985 C   0  0  0  0  0  0  0  0  0  0  0  0
  3  1  2  0
  3  2  1  0
  5  2  2  0
  6  4  1  0
  7  4  1  0
  8  3  1  0
  8  7  1  0
  9  5  1  0
  9  8  2  0
 10  4  1  0
 12  2  1  0
 13  1  1  0
 13 12  2  0
 14  6  3  0
 14 11  1  0
M  END
>  <ID>  (1) 
conformer_0

$$$$
