
     RDKit          3D

 15 15  0  0  0  0  0  0  0  0999 V2000
   21.2101   55.5088   87.9090 C   0  0  0  0  0  0  0  0  0  0  0  0
   21.5846   54.7766   89.0548 C   0  0  0  0  0  0  0  0  0  0  0  0
   23.5716   56.1358   87.6285 C   0  0  0  0  0  0  0  0  0  0  0  0
   27.2198   56.2635   90.6537 C   0  0  0  0  0  0  0  0  0  0  0  0
   23.6268   55.5552   88.8096 C   0  0  0  0  0  0  0  0  0  0  0  0
   27.7058   57.1967   89.1339 C   0  0  0  0  0  0  0  0  0  0  0  0
   24.5608   55.4314   90.2882 C   0  0  0  0  0  0  0  0  0  0  0  0
   22.2303   56.2211   87.0121 C   0  0  0  0  0  0  0  0  0  0  0  0
   25.6651   55.7649   90.4757 O   0  0  0  0  0  0  0  0  0  0  0  0
   28.8561   56.6320   90.5473 O   0  0  0  0  0  0  0  0  0  0  0  0
   28.6218   59.8240   88.9549 O   0  0  0  0  0  0  0  0  0  0  0  0
   22.3889   54.5093   90.0294 C   0  0  0  0  0  0  0  0  0  0  0  0
   23.4002   54.5744   91.0228 C   0  0  0  0  0  0  0  0  0  0  0  0
   28.3733   59.6615   86.6757 C   0  0  0  0  0  0  0  0  0  0  0  0
   28.0779   58.7830   87.8197 C   0  0  0  0  0  0  0  0  0  0  0  0
  2  1  1  0
  5  3  1  0
  6  4  1  0
  7  5  1  0
  8  1  1  0
  8  3  2  0
  9  4  1  0
  9  7  1  0
 10  4  1  0
 12  2  2  0
 13  7  1  0
 13 12  2  0
 15  6  1  0
 15 11  1  0
 15 14  1  0
M  END
>  <ID>  (1) 
conformer_0

$$$$
