
     RDKit          3D

 16 18  0  0  0  0  0  0  0  0999 V2000
   21.9535   56.0166   87.2699 C   0  0  0  0  0  0  0  0  0  0  0  0
   23.3007   56.1348   87.4778 C   0  0  0  0  0  0  0  0  0  0  0  0
   21.4981   55.2397   88.4169 C   0  0  0  0  0  0  0  0  0  0  0  0
   27.3707   56.4525   90.6385 C   0  0  0  0  0  0  0  0  0  0  0  0
   27.2707   59.6798   86.0481 C   0  0  0  0  0  0  0  0  0  0  0  0
   22.0307   54.5352   89.9209 C   0  0  0  0  0  0  0  0  0  0  0  0
   27.7599   56.8544   89.5292 C   0  0  0  0  0  0  0  0  0  0  0  0
   25.5415   55.6436   90.0277 O   0  0  0  0  0  0  0  0  0  0  0  0
   24.2567   55.2788   90.0961 C   0  0  0  0  0  0  0  0  0  0  0  0
   22.5269   54.1883   91.2123 C   0  0  0  0  0  0  0  0  0  0  0  0
   29.0251   56.1691   90.8729 O   0  0  0  0  0  0  0  0  0  0  0  0
   27.8952   58.2671   87.9798 C   0  0  0  0  0  0  0  0  0  0  0  0
   23.2581   55.3296   89.0063 C   0  0  0  0  0  0  0  0  0  0  0  0
   28.4156   58.1427   88.7126 N   0  0  0  0  0  0  0  0  0  0  0  0
   23.8022   54.5102   91.5934 C   0  0  0  0  0  0  0  0  0  0  0  0
   28.3010   60.1190   87.0505 C   0  0  0  0  0  0  0  0  0  0  0  0
  2  1  2  0
  3  1  1  0
  6  3  1  0
  7  4  1  0
  8  4  1  0
  9  8  1  0
 10  6  2  0
 11  4  1  0
 13  2  1  0
 13  3  1  0
 13  6  1  0
 13  9  1  0
 14  7  1  0
 14 12  1  0
 15  9  2  0
 15 10  1  0
 16  5  1  0
 16 12  1  0
M  END
>  <ID>  (1) 
conformer_0

$$$$
