
     RDKit          3D

 18 23  0  0  0  0  0  0  0  0999 V2000
   22.5136   54.1192   91.3615 C   0  0  0  0  0  0  0  0  0  0  0  0
   21.6569   53.9243   90.1517 C   0  0  0  0  0  0  0  0  0  0  0  0
   27.2183   56.6622   90.3289 C   0  0  0  0  0  0  0  0  0  0  0  0
   23.0158   56.1400   87.0149 C   0  0  0  0  0  3  0  0  0  0  0  0
   22.3281   55.3650   88.4310 C   0  0  0  0  0  0  0  0  0  0  0  0
   27.9238   59.1966   86.9506 C   0  0  0  0  0  0  0  0  0  0  0  0
   27.6019   57.2247   89.2121 C   0  0  0  0  0  0  0  0  0  0  0  0
   25.5045   56.3380   89.6563 O   0  0  0  0  0  0  0  0  0  0  0  0
   28.7603   55.9045   90.5905 O   0  0  0  0  0  0  0  0  0  0  0  0
   24.3251   55.7154   89.5484 C   0  0  0  0  0  0  0  0  0  0  0  0
   21.3719   55.6983   87.3703 C   0  0  0  0  0  0  0  0  0  0  0  0
   21.0713   54.6590   88.8782 C   0  0  0  0  0  0  0  0  0  0  0  0
   28.5218   58.0277   88.7579 N   0  0  0  0  0  0  0  0  0  0  0  0
   24.0642   55.9922   88.1760 C   0  0  0  0  0  0  0  0  0  0  0  0
   28.0735   58.5282   88.0245 C   0  0  0  0  0  0  0  0  0  0  0  0
   28.7620   60.5750   87.7770 C   0  0  0  0  0  0  0  0  0  0  0  0
   23.0703   54.8869   89.7526 C   0  0  0  0  0  0  0  0  0  0  0  0
   24.0177   54.8630   91.0894 C   0  0  0  0  0  0  0  0  0  0  0  0
  2  1  1  0
  5  4  1  0
  7  3  1  0
  8  3  1  0
  9  3  1  0
 10  8  1  0
 11  4  1  0
 11  5  1  0
 12  2  1  0
 12  5  1  0
 12 11  2  0
 13  7  1  0
 14  4  1  0
 14 10  1  0
 15  6  1  0
 15 13  1  0
 16  6  1  0
 17  2  1  0
 17  5  1  0
 17 10  1  0
 18  1  1  0
 18 10  1  0
 18 17  1  0
M  RAD  1   4   2
M  END
>  <ID>  (1) 
conformer_0

$$$$
