
     RDKit          3D

 17 18  0  0  0  0  0  0  0  0999 V2000
   21.1164   55.1215   88.4410 C   0  0  0  0  0  0  0  0  0  0  0  0
   21.7945   54.4845   89.5706 C   0  0  0  0  0  0  0  0  0  0  0  0
   27.2225   56.7178   90.2932 C   0  0  2  0  0  0  0  0  0  0  0  0
   22.9518   54.2106   91.4831 C   0  0  0  0  0  0  0  0  0  0  0  0
   23.5623   55.8186   88.3676 C   0  0  0  0  0  0  0  0  0  0  0  0
   27.4831   57.3959   89.1085 C   0  0  0  0  0  0  0  0  0  0  0  0
   24.6264   55.3724   90.5093 C   0  0  0  0  0  0  0  0  0  0  0  0
   25.4504   55.8238   89.6113 O   0  0  0  0  0  0  0  0  0  0  0  0
   28.7518   57.9722   88.1042 N   0  0  0  0  0  0  0  0  0  0  0  0
   21.5239   55.7859   87.4630 C   0  0  0  0  0  0  0  0  0  0  0  0
   22.8696   56.3599   87.2881 C   0  0  0  0  0  0  0  0  0  0  0  0
   28.5063   59.8352   87.3885 C   0  0  0  0  0  0  0  0  0  0  0  0
   28.2083   58.7649   87.8667 C   0  0  0  0  0  0  0  0  0  0  0  0
   28.6057   56.1880   90.4449 O   0  0  0  0  0  0  0  0  0  0  0  0
   22.7646   54.7051   90.1267 C   0  0  0  0  0  0  0  0  0  0  0  0
   24.3809   54.8508   91.4474 C   0  0  0  0  0  0  0  0  0  0  0  0
   23.5942   55.5140   88.9240 C   0  0  0  0  0  0  0  0  0  0  0  0
  2  1  2  0
  6  3  1  0
  8  7  1  0
  9  6  1  0
 10  1  1  0
 11  5  1  0
 11 10  2  0
 13  9  1  0
 13 12  2  3
  3 14  1  6
 15  2  1  0
 15  4  2  0
 16  3  1  0
 16  4  1  0
 16  7  2  0
 17  5  2  0
 17  7  1  0
 17 15  1  0
M  END
>  <ID>  (1) 
conformer_0

$$$$
