
     RDKit          3D

 15 17  0  0  0  0  0  0  0  0999 V2000
   22.3754   56.2382   87.0784 C   0  0  0  0  0  0  0  0  0  0  0  0
   21.6996   54.8015   88.9716 C   0  0  0  0  0  3  0  0  0  0  0  0
   21.3458   55.5120   87.8268 C   0  0  0  0  0  0  0  0  0  0  0  0
   27.6402   57.1836   89.3090 C   0  0  0  0  0  0  0  0  0  0  0  0
   28.1683   58.8564   87.4739 C   0  0  0  0  0  0  0  0  0  0  0  0
   22.7784   54.1041   91.3680 C   0  0  0  0  0  0  0  0  0  0  0  0
   25.3912   56.1665   89.8034 O   0  0  0  0  0  0  0  0  0  0  0  0
   24.2274   55.6343   89.7350 C   0  0  0  0  0  0  0  0  0  0  0  0
   28.9637   58.2637   87.1066 N   0  0  0  0  0  0  0  0  0  0  0  0
   24.0390   54.7583   91.3880 C   0  0  0  0  0  0  0  0  0  0  0  0
   28.7764   56.6258   90.5965 O   0  0  0  0  0  0  0  0  0  0  0  0
   22.0198   54.1840   90.2188 C   0  0  0  0  0  0  0  0  0  0  0  0
   27.0890   56.5323   90.7658 C   0  0  0  0  0  0  0  0  0  0  0  0
   23.6076   56.4117   87.7670 C   0  0  0  0  0  0  0  0  0  0  0  0
   23.2748   55.2996   89.2686 C   0  0  0  0  0  0  0  0  0  0  0  0
  3  1  2  0
  3  2  1  0
  5  4  1  0
  8  7  1  0
  9  5  1  0
 10  6  1  0
 10  8  2  0
 12  2  1  0
 12  6  2  0
 13  4  1  0
 13  7  1  0
 13 11  1  0
 14  1  1  0
 15  2  1  0
 15  8  1  0
 15 12  1  0
 15 14  1  0
M  RAD  1   2   2
M  END
>  <ID>  (1) 
conformer_0

$$$$
