
     RDKit          3D

 15 15  0  0  0  0  0  0  0  0999 V2000
   23.7173   54.6054   91.2403 C   0  0  0  0  0  0  0  0  0  0  0  0
   21.2467   55.1438   88.4440 C   0  0  0  0  0  0  0  0  0  0  0  0
   22.4068   54.3107   90.7254 C   0  0  0  0  0  0  0  0  0  0  0  0
   27.1368   56.2317   90.8940 C   0  0  0  0  0  0  0  0  0  0  0  0
   28.3328   59.5384   86.6851 C   0  0  0  0  0  0  0  0  0  0  0  0
   23.6664   55.5972   88.9838 C   0  0  0  0  0  0  0  0  0  0  0  0
   27.9981   58.5970   87.9819 C   0  0  0  0  0  0  0  0  0  0  0  0
   25.5623   55.9574   90.2292 O   0  0  0  0  0  0  0  0  0  0  0  0
   21.8447   54.6193   89.5523 C   0  0  0  0  0  0  0  0  0  0  0  0
   24.3514   55.4488   90.0822 C   0  0  0  0  0  0  0  0  0  0  0  0
   28.8863   56.6793   90.5015 O   0  0  0  0  0  0  0  0  0  0  0  0
   21.8386   55.9036   87.3381 C   0  0  0  0  0  0  0  0  0  0  0  0
   23.1977   56.1266   87.6206 C   0  0  0  0  0  0  0  0  0  0  0  0
   28.4401   57.9753   88.4378 N   0  0  0  0  0  0  0  0  0  0  0  0
   27.6791   57.1957   89.6373 C   0  0  0  0  0  0  0  0  0  0  0  0
  3  1  1  0
  7  5  1  0
  8  4  1  0
  9  2  2  0
  9  3  2  0
 10  1  1  0
 10  6  2  0
 10  8  1  0
 12  2  1  0
 13  6  2  0
 13 12  1  0
 14  7  1  0
 15  4  1  0
 15 11  1  0
 15 14  1  0
M  END
>  <ID>  (1) 
conformer_0

$$$$
