
     RDKit          3D

 15 15  0  0  0  0  0  0  0  0999 V2000
   27.3847   56.4447   90.3621 C   0  0  0  0  0  0  0  0  0  0  0  0
   21.8443   54.4196   89.8036 C   0  0  0  0  0  0  0  0  0  0  0  0
   23.4883   55.3427   89.0977 C   0  0  0  0  0  0  0  0  0  0  0  0
   23.7273   54.6591   91.3351 C   0  0  0  0  0  0  0  0  0  0  0  0
   22.4430   54.1810   91.0766 C   0  0  0  0  0  0  0  0  0  0  0  0
   23.1444   55.9925   87.7513 C   0  0  0  0  0  0  0  0  0  0  0  0
   25.6992   56.1024   89.8340 O   0  0  0  0  0  0  0  0  0  0  0  0
   27.4605   56.9631   89.3827 C   0  0  0  0  0  0  0  0  0  0  0  0
   24.4066   55.4640   90.0294 C   0  0  0  0  0  0  0  0  0  0  0  0
   28.9504   56.4619   90.8050 O   0  0  0  0  0  0  0  0  0  0  0  0
   28.3689   59.7033   86.9766 C   0  0  0  0  0  0  0  0  0  0  0  0
   21.2554   55.0332   88.6127 C   0  0  0  0  0  0  0  0  0  0  0  0
   21.7100   55.9099   87.4698 C   0  0  0  0  0  0  0  0  0  0  0  0
   28.2970   58.6879   88.3339 C   0  0  0  0  0  0  0  0  0  0  0  0
   28.4599   58.1880   88.7893 N   0  0  0  0  0  0  0  0  0  0  0  0
  5  2  2  0
  5  4  1  0
  6  3  1  0
  7  1  1  0
  8  1  1  0
  9  3  1  0
  9  4  2  0
  9  7  1  0
 10  1  1  0
 12  2  2  0
 13  6  2  0
 13 12  1  0
 14 11  1  0
 15  8  1  0
 15 14  1  0
M  END
>  <ID>  (1) 
conformer_0

$$$$
