
     RDKit          3D

 14 16  0  0  0  0  0  0  0  0999 V2000
   21.3627   55.3182   88.2478 C   0  0  0  0  0  0  0  0  0  0  0  0
   21.8753   54.5206   89.8233 C   0  0  0  0  0  0  0  0  0  0  0  0
   22.0150   56.0674   87.1248 C   0  0  0  0  0  0  0  0  0  0  0  0
   27.6118   56.6828   90.4625 C   0  0  0  0  0  0  0  0  0  0  0  0
   23.4091   56.2154   87.4337 C   0  0  0  0  0  0  0  0  0  0  0  0
   27.7879   57.4854   89.0345 C   0  0  0  0  0  0  0  0  0  0  0  0
   25.4715   56.0433   89.9320 O   0  0  0  0  0  0  0  0  0  0  0  0
   24.2616   55.5617   89.9379 C   0  0  0  0  0  0  0  0  0  0  0  0
   22.4890   54.1578   91.1563 C   0  0  0  0  0  0  0  0  0  0  0  0
   23.7722   54.5906   91.4472 C   0  0  0  0  0  0  0  0  0  0  0  0
   29.0010   56.4399   90.8783 O   0  0  0  0  0  0  0  0  0  0  0  0
   23.1105   55.3942   89.0602 C   0  0  0  0  0  0  0  0  0  0  0  0
   29.2952   59.7617   88.1884 O   0  0  0  0  0  0  0  0  0  0  0  0
   28.2324   58.9604   87.4771 C   0  0  0  0  0  0  0  0  0  0  0  0
  2  1  1  0
  3  1  1  0
  5  3  2  0
  6  4  1  0
  7  4  1  0
  8  7  1  0
  9  2  2  0
 10  8  2  0
 10  9  1  0
 11  4  1  0
 12  1  1  0
 12  2  1  0
 12  5  1  0
 12  8  1  0
 14  6  1  0
 14 13  1  0
M  END
>  <ID>  (1) 
conformer_0

$$$$
