
     RDKit          3D

 17 19  0  0  0  0  0  0  0  0999 V2000
   23.8488   54.5826   91.3539 C   0  0  0  0  0  0  0  0  0  0  0  0
   20.9538   55.2185   88.4161 C   0  0  0  0  0  0  0  0  0  0  0  0
   27.8009   57.2625   89.4543 C   0  0  0  0  0  0  0  0  0  0  0  0
   22.3636   55.2991   89.0208 C   0  0  0  0  0  0  0  0  0  0  0  0
   21.4778   55.9435   87.2655 C   0  0  0  0  0  0  0  0  0  0  0  0
   23.8859   56.2298   87.9073 C   0  0  0  0  0  0  0  0  0  0  0  0
   28.1039   58.5845   87.9686 C   0  0  0  0  0  0  0  0  0  0  0  0
   28.8037   59.6768   87.5567 C   0  0  0  0  0  0  0  0  0  0  0  0
   25.7322   55.6838   89.9774 O   0  0  0  0  0  0  0  0  0  0  0  0
   24.5728   55.2795   90.3159 C   0  0  0  0  0  0  0  0  0  0  0  0
   28.3749   58.0258   88.9547 N   0  0  0  0  0  0  0  0  0  0  0  0
   23.7241   55.6320   89.2314 C   0  0  0  0  0  0  0  0  0  0  0  0
   22.5604   54.2466   91.0685 C   0  0  0  0  0  0  0  0  0  0  0  0
   28.8050   56.4627   90.7879 O   0  0  0  0  0  0  0  0  0  0  0  0
   27.2835   56.3782   90.5829 C   0  0  1  0  0  0  0  0  0  0  0  0
   22.7283   56.3171   86.9656 C   0  0  0  0  0  0  0  0  0  0  0  0
   21.7275   54.3733   89.9870 C   0  0  0  0  0  0  0  0  0  0  0  0
  4  2  1  0
  5  2  2  0
  8  7  2  3
 10  1  2  0
 10  9  1  0
 11  3  1  0
 11  7  1  0
 12  4  2  0
 12  6  1  0
 12 10  1  0
 13  1  1  0
 15  3  1  0
 15  9  1  0
 15 14  1  6
 16  5  1  0
 16  6  2  0
 17  2  1  0
 17  4  1  0
 17 13  2  0
M  END
>  <ID>  (1) 
conformer_0

$$$$
