
     RDKit          3D

 16 18  0  0  0  0  0  0  0  0999 V2000
   21.7638   56.0061   87.4364 C   0  0  0  0  0  0  0  0  0  0  0  0
   22.6279   54.1216   91.5464 C   0  0  0  0  0  0  0  0  0  0  0  0
   21.7224   55.3215   88.6336 C   0  0  0  0  0  0  0  0  0  0  0  0
   27.9933   57.4220   89.3102 C   0  0  0  0  0  0  0  0  0  0  0  0
   23.1178   56.3747   86.9476 C   0  0  0  0  0  0  0  0  0  0  0  0
   28.1790   58.7428   87.8654 C   0  0  0  0  0  0  0  0  0  0  0  0
   23.9354   54.5835   91.6373 C   0  0  0  0  0  0  0  0  0  0  0  0
   25.6599   55.7319   89.8708 O   0  0  0  0  0  0  0  0  0  0  0  0
   24.4271   55.4000   89.9293 C   0  0  0  0  0  3  0  0  0  0  0  0
   29.1658   59.7693   89.1671 O   0  0  0  0  0  0  0  0  0  0  0  0
   22.0512   54.4858   90.2386 C   0  0  0  0  0  0  0  0  0  0  0  0
   24.1288   56.1709   87.7562 C   0  0  0  0  0  0  0  0  0  0  0  0
   27.6380   56.4627   90.2867 C   0  0  0  0  0  0  0  0  0  0  0  0
   28.7532   57.3366   90.9875 O   0  0  0  0  0  0  0  0  0  0  0  0
   23.3084   55.3581   89.2508 C   0  0  0  0  0  0  0  0  0  0  0  0
   27.9799   59.5263   87.4668 C   0  0  0  0  0  0  0  0  0  0  0  0
  3  1  2  0
  5  1  1  0
  6  4  1  0
  7  2  2  0
  9  7  1  0
  9  8  1  0
 10  6  1  0
 11  2  1  0
 11  3  1  0
 12  5  2  0
 13  4  1  0
 13  8  1  0
 14 13  1  0
 15  3  1  0
 15  9  1  0
 15 11  1  0
 15 12  1  0
 16  6  1  0
M  RAD  1   9   2
M  END
>  <ID>  (1) 
conformer_0

$$$$
