
     RDKit          3D

 14 14  0  0  0  0  0  0  0  0999 V2000
   22.1871   54.3311   90.4721 C   0  0  0  0  0  0  0  0  0  0  0  0
   27.2443   56.3652   90.6036 C   0  0  0  0  0  0  0  0  0  0  0  0
   23.4193   54.6427   91.0484 C   0  0  0  0  0  0  0  0  0  0  0  0
   22.7983   56.2756   87.4293 C   0  0  0  0  0  0  0  0  0  0  0  0
   23.4400   55.8284   88.6221 C   0  0  0  0  0  0  0  0  0  0  0  0
   27.7444   57.0398   89.3563 C   0  0  0  0  0  0  0  0  0  0  0  0
   24.3276   55.4310   89.9823 C   0  0  0  0  0  0  0  0  0  0  0  0
   25.6483   55.7311   89.9790 O   0  0  0  0  0  0  0  0  0  0  0  0
   28.8542   56.4556   90.8230 O   0  0  0  0  0  0  0  0  0  0  0  0
   28.7170   58.1536   88.3012 N   0  0  0  0  0  0  0  0  0  0  0  0
   21.6119   55.6285   87.8815 C   0  0  0  0  0  0  0  0  0  0  0  0
   21.6538   54.7820   89.2388 C   0  0  0  0  0  0  0  0  0  0  0  0
   28.1991   58.6387   88.0947 C   0  0  0  0  0  0  0  0  0  0  0  0
   28.1649   59.9374   87.1047 C   0  0  0  0  0  0  0  0  0  0  0  0
  3  1  1  0
  5  4  2  0
  6  2  1  0
  7  3  1  0
  7  5  2  0
  8  2  1  0
  8  7  1  0
  9  2  1  0
 10  6  1  0
 11  4  1  0
 12  1  2  0
 12 11  2  0
 13 10  1  0
 14 13  1  0
M  END
>  <ID>  (1) 
conformer_0

$$$$
