
     RDKit          3D

 20 23  0  0  0  0  0  0  0  0999 V2000
   21.9596   56.0308   87.1245 C   0  0  0  0  0  0  0  0  0  0  0  0
   23.2573   56.3173   86.8091 C   0  0  0  0  0  0  0  0  0  0  0  0
   21.5577   55.4203   88.3032 C   0  0  0  0  0  0  0  0  0  0  0  0
   26.4702   56.2923   90.8493 C   0  0  0  0  0  0  0  0  0  0  0  0
   27.7790   59.3089   86.6988 C   0  0  0  0  0  0  0  0  0  0  0  0
   21.8385   54.0257   90.7536 C   0  0  0  0  0  0  0  0  0  0  0  0
   25.2891   55.8766   89.8668 O   0  0  0  0  0  0  0  0  0  0  0  0
   24.0407   55.8002   88.8468 C   0  0  0  0  0  0  0  0  0  0  0  0
   27.9014   56.7799   90.4583 C   0  0  0  0  0  0  0  0  0  0  0  0
   28.6066   57.8605   88.1931 N   0  0  0  0  0  0  0  0  0  0  0  0
   22.9168   54.1191   91.6719 C   0  0  0  0  0  0  0  0  0  0  0  0
   28.9147   56.1622   90.6083 O   0  0  0  0  0  0  0  0  0  0  0  0
   24.1571   54.7332   91.4164 C   0  0  0  0  0  0  0  0  0  0  0  0
   28.2325   58.6909   87.6052 C   0  0  0  0  0  0  0  0  0  0  0  0
   21.8929   54.5484   89.5972 C   0  0  0  0  0  0  0  0  0  0  0  0
   28.6730   60.2099   87.5216 C   0  0  0  0  0  0  0  0  0  0  0  0
   23.1133   55.3716   89.1968 C   0  0  0  0  0  0  0  0  0  0  0  0
   24.3210   56.2064   87.6788 C   0  0  0  0  0  0  0  0  0  0  0  0
   24.3454   55.1946   90.5634 C   0  0  0  0  0  0  0  0  0  0  0  0
   27.6176   57.2069   88.9821 C   0  0  0  0  0  0  0  0  0  0  0  0
  2  1  2  0
  3  1  1  0
  7  4  1  0
  9  4  1  0
 11  6  2  0
 12  9  1  0
 13 11  1  0
 14  5  1  0
 14 10  1  0
 15  3  1  0
 15  6  1  0
 16  5  1  0
 16 14  1  0
 17  3  1  0
 17  8  1  0
 17 15  2  0
 18  2  1  0
 18  8  2  0
 19  7  1  0
 19  8  1  0
 19 13  2  0
 20  9  1  0
 20 10  1  0
M  END
>  <ID>  (1) 
conformer_0

$$$$
