
     RDKit          3D

 15 16  0  0  0  0  0  0  0  0999 V2000
   21.8335   54.5979   89.6115 C   0  0  0  0  0  0  0  0  0  0  0  0
   21.8445   56.1108   87.1959 C   0  0  0  0  0  0  0  0  0  0  0  0
   23.2751   56.2202   87.6633 C   0  0  0  0  0  0  0  0  0  0  0  0
   27.1269   56.3379   90.8491 C   0  0  0  0  0  0  0  0  0  0  0  0
   22.3466   54.2336   90.8721 C   0  0  0  0  0  0  0  0  0  0  0  0
   27.8200   56.8816   89.6388 C   0  0  0  0  0  0  0  0  0  0  0  0
   23.6138   54.6317   91.3073 C   0  0  0  0  0  0  0  0  0  0  0  0
   25.6096   55.7885   89.8522 O   0  0  0  0  0  0  0  0  0  0  0  0
   28.9928   55.8932   90.5567 O   0  0  0  0  0  0  0  0  0  0  0  0
   24.4778   55.4537   90.0223 C   0  0  0  0  0  0  0  0  0  0  0  0
   28.0192   59.4166   86.7151 C   0  0  0  0  0  0  0  0  0  0  0  0
   23.2874   55.4582   89.0272 C   0  0  0  0  0  0  0  0  0  0  0  0
   28.4862   58.0816   88.8475 N   0  0  0  0  0  0  0  0  0  0  0  0
   27.9719   58.3015   88.0968 C   0  0  0  0  0  0  0  0  0  0  0  0
   21.2251   55.2634   88.3311 C   0  0  0  0  0  0  0  0  0  0  0  0
  3  2  2  0
  5  1  1  0
  6  4  1  0
  7  5  2  0
  8  4  1  0
  9  6  1  0
 10  7  1  0
 10  8  1  0
 12  1  1  0
 12  3  1  0
 12 10  2  0
 13  6  1  0
 14 11  1  0
 14 13  1  0
 15  1  2  0
 15  2  1  0
M  END
>  <ID>  (1) 
conformer_0

$$$$
