
     RDKit          3D

 18 20  0  0  0  0  0  0  0  0999 V2000
   21.5646   54.1379   90.0635 C   0  0  0  0  0  3  0  0  0  0  0  0
   21.1844   54.8318   88.8266 C   0  0  0  0  0  0  0  0  0  0  0  0
   28.0125   58.5187   86.9018 C   0  0  0  0  0  0  0  0  0  0  0  0
   26.8763   56.6117   90.5544 C   0  0  0  0  0  0  0  0  0  0  0  0
   23.6748   54.5883   91.3282 C   0  0  0  0  0  0  0  0  0  0  0  0
   22.8737   55.2156   89.2423 C   0  0  0  0  0  0  0  0  0  0  0  0
   28.5145   58.2862   89.2958 N   0  0  0  0  0  0  0  0  0  0  0  0
   25.2727   55.8603   89.9251 O   0  0  0  0  0  0  0  0  0  0  0  0
   24.1378   55.4029   89.9437 C   0  0  0  0  0  0  0  0  0  0  0  0
   28.8200   55.7975   90.6218 O   0  0  0  0  0  0  0  0  0  0  0  0
   21.2484   55.6500   87.6242 C   0  0  0  0  0  0  0  0  0  0  0  0
   22.5054   56.3408   87.1415 C   0  0  0  0  0  0  0  0  0  0  0  0
   27.8608   56.7692   89.8502 C   0  0  0  0  0  0  0  0  0  0  0  0
   28.0992   60.0006   86.2656 C   0  0  0  0  0  0  0  0  0  0  0  0
   23.5832   56.1969   88.0638 C   0  0  0  0  0  0  0  0  0  0  0  0
   27.9921   58.1571   88.3169 C   0  0  0  0  0  0  0  0  0  0  0  0
   22.3180   54.0269   91.2444 C   0  0  0  0  0  0  0  0  0  0  0  0
   28.6756   60.3902   87.7286 C   0  0  0  0  0  0  0  0  0  0  0  0
  2  1  1  0
  6  1  1  0
  6  2  1  0
  8  4  1  0
  9  5  2  0
  9  6  1  0
  9  8  1  0
 11  2  2  0
 12 11  1  0
 13  4  1  0
 13  7  1  0
 13 10  1  0
 14  3  1  0
 15  6  1  0
 15 12  2  0
 16  3  1  0
 16  7  1  0
 17  1  1  0
 17  5  1  0
 18 14  1  0
M  RAD  1   1   2
M  END
>  <ID>  (1) 
conformer_0

$$$$
