
     RDKit          3D

 14 14  0  0  0  0  0  0  0  0999 V2000
   22.6921   54.4404   90.7749 C   0  0  0  0  0  0  0  0  0  0  0  0
   21.3211   55.2051   88.4955 C   0  0  0  0  0  0  0  0  0  0  0  0
   23.9409   54.6919   91.3304 C   0  0  0  0  0  0  0  0  0  0  0  0
   27.8683   57.2309   88.9259 C   0  0  0  0  0  0  0  0  0  0  0  0
   28.3937   58.7374   87.5432 C   0  0  0  0  0  0  0  0  0  0  0  0
   21.7770   55.9495   87.3894 C   0  0  0  0  0  0  0  0  0  0  0  0
   24.4358   55.5545   90.1117 C   0  0  0  0  0  0  0  0  0  0  0  0
   25.6606   55.9711   90.1105 O   0  0  0  0  0  0  0  0  0  0  0  0
   22.0681   54.7661   89.6394 C   0  0  0  0  0  0  0  0  0  0  0  0
   23.1956   56.3146   87.5277 C   0  0  0  0  0  0  0  0  0  0  0  0
   28.7710   59.9566   88.4656 O   0  0  0  0  0  0  0  0  0  0  0  0
   27.3414   56.3109   90.6113 C   0  0  0  0  0  0  0  0  0  0  0  0
   23.6177   55.7811   88.7779 C   0  0  0  0  0  0  0  0  0  0  0  0
   28.5974   57.6338   88.4064 N   0  0  0  0  0  0  0  0  0  0  0  0
  3  1  1  0
  6  2  1  0
  7  3  1  0
  8  7  1  0
  9  1  2  0
  9  2  2  0
 10  6  1  0
 11  5  1  0
 12  4  1  0
 12  8  1  0
 13  7  2  0
 13 10  2  0
 14  4  1  0
 14  5  1  0
M  END
>  <ID>  (1) 
conformer_0

$$$$
