
     RDKit          3D

 16 17  0  0  0  0  0  0  0  0999 V2000
   21.8807   55.1421   88.9459 C   0  0  0  0  0  0  0  0  0  0  0  0
   21.4869   55.7741   87.6942 C   0  0  0  0  0  0  0  0  0  0  0  0
   27.1741   56.5761   90.3081 C   0  0  0  0  0  0  0  0  0  0  0  0
   22.7162   54.1787   91.4676 C   0  0  0  0  0  0  0  0  0  0  0  0
   22.5537   56.3765   86.8936 C   0  0  0  0  0  0  0  0  0  0  0  0
   27.8530   57.0880   89.6445 C   0  0  0  0  0  0  0  0  0  0  0  0
   25.5533   56.0681   89.8851 O   0  0  0  0  0  0  0  0  0  0  0  0
   23.9821   54.7088   91.5239 C   0  0  0  0  0  0  0  0  0  0  0  0
   24.3737   55.4928   90.0336 C   0  0  0  0  0  0  0  0  0  0  0  0
   29.1155   56.1576   90.5179 O   0  0  0  0  0  0  0  0  0  0  0  0
   22.0807   54.4303   90.2600 C   0  0  0  0  0  0  0  0  0  0  0  0
   28.2727   59.3178   86.9873 C   0  0  0  0  0  0  0  0  0  0  0  0
   27.9750   58.3655   88.1712 C   0  0  0  0  0  0  0  0  0  0  0  0
   23.4632   55.4683   89.1210 C   0  0  0  0  0  0  0  0  0  0  0  0
   23.7560   56.2473   87.6324 C   0  0  0  0  0  0  0  0  0  0  0  0
   28.3425   58.1898   88.6569 N   0  0  0  0  0  0  0  0  0  0  0  0
  2  1  2  0
  5  2  1  0
  6  3  1  0
  7  3  1  0
  8  4  1  0
  9  7  1  0
  9  8  2  0
 10  6  1  0
 11  1  1  0
 11  4  2  0
 13 12  1  0
 14  1  1  0
 14  9  1  0
 15  5  1  0
 15 14  2  0
 16  6  1  0
 16 13  1  0
M  END
>  <ID>  (1) 
conformer_0

$$$$
