
     RDKit          3D

 15 17  0  0  0  0  0  0  0  0999 V2000
   23.8603   56.4347   87.7641 C   0  0  0  0  0  0  0  0  0  0  0  0
   22.8643   56.5572   86.7661 C   0  0  0  0  0  0  0  0  0  0  0  0
   21.5179   55.1837   88.4159 C   0  0  0  0  0  0  0  0  0  0  0  0
   27.8282   57.3507   89.1561 C   0  0  0  0  0  0  0  0  0  0  0  0
   28.0891   58.9556   87.5447 C   0  0  0  0  0  0  0  0  0  0  0  0
   21.7363   53.9415   90.6153 C   0  0  0  0  0  0  0  0  0  0  0  0
   21.6721   55.9349   87.2015 C   0  0  0  0  0  0  0  0  0  0  0  0
   25.6254   55.7331   89.8251 O   0  0  0  0  0  0  0  0  0  0  0  0
   24.3087   55.3474   89.8945 C   0  0  0  0  0  3  0  0  0  0  0  0
   28.8373   60.1124   88.7359 O   0  0  0  0  0  0  0  0  0  0  0  0
   23.3493   55.5167   88.9696 C   0  0  0  0  0  0  0  0  0  0  0  0
   27.3526   56.5861   90.6356 C   0  0  0  0  0  0  0  0  0  0  0  0
   22.2033   54.6101   89.5125 C   0  0  0  0  0  0  0  0  0  0  0  0
   22.8006   54.1418   91.6009 C   0  0  0  0  0  0  0  0  0  0  0  0
   23.9360   54.7719   91.3464 C   0  0  0  0  0  0  0  0  0  0  0  0
  2  1  2  0
  5  4  1  0
  7  2  1  0
  7  3  2  0
  9  8  1  0
 10  5  1  0
 11  1  1  0
 11  3  1  0
 11  9  1  0
 12  4  1  0
 12  8  1  0
 13  3  1  0
 13  6  2  0
 13 11  1  0
 14  6  1  0
 15  9  1  0
 15 14  2  0
M  RAD  1   9   2
M  END
>  <ID>  (1) 
conformer_0

$$$$
