
     RDKit          3D

 19 24  0  0  0  0  0  0  0  0999 V2000
   21.8454   54.0064   90.7677 C   0  0  0  0  0  0  0  0  0  0  0  0
   22.6080   55.3048   88.7282 C   0  0  0  0  0  0  0  0  0  0  0  0
   27.9518   59.5287   86.1818 C   0  0  0  0  0  0  0  0  0  0  0  0
   24.1270   55.9957   88.6176 C   0  0  0  0  0  3  0  0  0  0  0  0
   27.5304   56.9162   89.3674 C   0  0  0  0  0  0  0  0  0  0  0  0
   23.0156   54.1262   91.6830 C   0  0  0  0  0  0  0  0  0  0  0  0
   24.4290   54.8370   91.4981 C   0  0  0  0  0  0  0  0  0  0  0  0
   25.6869   55.8489   90.0188 O   0  0  0  0  0  0  0  0  0  0  0  0
   24.5325   55.4717   90.0379 C   0  0  0  0  0  0  0  0  0  0  0  0
   27.8173   58.0086   87.8276 C   0  0  0  0  0  0  0  0  0  0  0  0
   28.8081   56.0508   90.6827 O   0  0  0  0  0  0  0  0  0  0  0  0
   23.0720   54.8149   90.0320 C   0  0  0  0  0  0  0  0  0  0  0  0
   28.2084   58.0372   88.8737 N   0  0  0  0  0  0  0  0  0  0  0  0
   28.6628   59.6556   87.1345 C   0  0  0  0  0  0  0  0  0  0  0  0
   21.3344   54.3577   89.3376 C   0  0  0  0  0  0  0  0  0  0  0  0
   21.1687   55.5117   88.1315 C   0  0  0  0  0  0  0  0  0  0  0  0
   27.2729   56.6758   90.4539 C   0  0  0  0  0  0  0  0  0  0  0  0
   23.4631   56.6811   87.3739 C   0  0  0  0  0  0  0  0  0  0  0  0
   22.0582   56.1441   87.0792 C   0  0  0  0  0  0  0  0  0  0  0  0
  4  2  1  0
  6  1  2  0
  7  6  1  0
  9  4  1  0
  9  7  1  0
  9  8  1  0
 12  1  1  0
 12  2  1  0
 12  6  1  0
 12  9  1  0
 13  5  1  0
 13 10  1  0
 14  3  1  0
 14 10  1  0
 15  1  1  0
 15  2  1  0
 16  2  1  0
 16 15  1  0
 17  5  1  0
 17  8  1  0
 17 11  1  0
 18  4  1  0
 19 16  1  0
 19 18  2  0
M  RAD  1   4   2
M  END
>  <ID>  (1) 
conformer_0

$$$$
