
     RDKit          3D

 18 19  0  0  0  0  0  0  0  0999 V2000
   22.0157   54.1354   90.3637 C   0  0  0  0  0  0  0  0  0  0  0  0
   22.7380   53.9970   91.4895 C   0  0  0  0  0  0  0  0  0  0  0  0
   26.6963   56.2544   90.9686 C   0  0  0  0  0  0  0  0  0  0  0  0
   24.0741   54.5705   91.4974 C   0  0  0  0  0  0  0  0  0  0  0  0
   22.0571   54.8755   89.1074 C   0  0  0  0  0  0  0  0  0  0  0  0
   22.7523   56.4344   86.8954 C   0  0  0  0  0  0  0  0  0  0  0  0
   27.7802   56.7231   90.2332 C   0  0  1  0  0  0  0  0  0  0  0  0
   24.4640   55.2648   90.4263 C   0  0  0  0  0  0  0  0  0  0  0  0
   28.9727   55.9025   90.4834 O   0  0  0  0  0  0  0  0  0  0  0  0
   25.5019   55.8638   90.3316 O   0  0  0  0  0  0  0  0  0  0  0  0
   28.3335   59.9690   87.0339 C   0  0  0  0  0  0  0  0  0  0  0  0
   27.6269   57.4745   89.0137 C   0  0  0  0  0  0  0  0  0  0  0  0
   23.4170   55.9348   88.0599 C   0  0  0  0  0  0  0  0  0  0  0  0
   23.4719   55.3062   89.3545 C   0  0  0  0  0  0  0  0  0  0  0  0
   28.4995   58.3699   88.3729 N   0  0  0  0  0  0  0  0  0  0  0  0
   20.9943   55.3171   88.2032 C   0  0  0  0  0  0  0  0  0  0  0  0
   21.3686   56.0530   87.0422 C   0  0  0  0  0  0  0  0  0  0  0  0
   28.0687   58.9595   87.4887 C   0  0  0  0  0  0  0  0  0  0  0  0
  2  1  2  0
  4  2  1  0
  5  1  1  0
  7  3  1  0
  8  4  2  0
  7  9  1  6
 10  3  1  0
 10  8  1  0
 12  7  1  0
 13  6  2  0
 14  5  2  0
 14  8  1  0
 14 13  1  0
 15 12  1  0
 16  5  1  0
 17  6  1  0
 17 16  2  0
 18 11  2  3
 18 15  1  0
M  END
>  <ID>  (1) 
conformer_0

$$$$
