
     RDKit          3D

 19 22  0  0  0  0  0  0  0  0999 V2000
   23.3272   56.5166   86.6827 C   0  0  0  0  0  0  0  0  0  0  0  0
   21.8787   56.1493   87.0579 C   0  0  0  0  0  0  0  0  0  0  0  0
   22.5841   54.0421   91.4828 C   0  0  0  0  0  0  0  0  0  0  0  0
   27.0575   56.5495   90.3632 C   0  0  0  0  0  0  0  0  0  0  0  0
   21.2504   55.0036   88.6969 C   0  0  0  0  0  0  0  0  0  0  0  0
   21.3762   54.0196   90.2344 C   0  0  0  0  0  0  0  0  0  0  0  0
   28.1163   56.7011   90.3185 C   0  0  1  0  0  0  0  0  0  0  0  0
   25.7857   55.7769   89.9578 O   0  0  0  0  0  0  0  0  0  0  0  0
   28.3046   60.2057   86.9647 C   0  0  0  0  0  0  0  0  0  0  0  0
   24.5845   55.4501   89.9935 C   0  0  0  0  0  0  0  0  0  0  0  0
   29.0590   55.8481   90.5343 O   0  0  0  0  0  0  0  0  0  0  0  0
   24.3118   56.6545   87.7889 C   0  0  0  0  0  3  0  0  0  0  0  0
   27.9473   59.0919   87.6652 C   0  0  0  0  0  0  0  0  0  0  0  0
   28.3094   58.0880   88.8925 N   0  0  0  0  0  0  0  0  0  0  0  0
   24.0625   54.6900   91.3621 C   0  0  0  0  0  0  0  0  0  0  0  0
   22.6393   54.6663   89.9963 C   0  0  0  0  0  0  0  0  0  0  0  0
   27.6655   57.2619   88.5364 C   0  0  0  0  0  0  0  0  0  0  0  0
   23.7032   55.6873   89.0691 C   0  0  1  0  0  0  0  0  0  0  0  0
   22.4887   55.7573   88.3850 C   0  0  0  0  0  0  0  0  0  0  0  0
  2  1  2  0
  6  3  1  0
  6  5  1  0
  7  4  1  0
  8  4  1  0
 10  8  1  0
  7 11  1  6
 12  1  1  0
 13  9  2  3
 14 13  1  0
 15  3  2  0
 15 10  1  0
 16  3  1  0
 16  6  2  0
 17  7  1  0
 17 14  1  0
 18 10  1  0
 18 12  1  6
 18 16  1  0
 19  2  1  0
 19  5  2  0
 19 18  1  0
M  RAD  1  12   2
M  END
>  <ID>  (1) 
conformer_0

$$$$
