
     RDKit          3D

 16 17  0  0  0  0  0  0  0  0999 V2000
   27.2793   56.5825   90.8387 C   0  0  0  0  0  0  0  0  0  0  0  0
   21.6334   54.9617   88.9803 C   0  0  0  0  0  0  0  0  0  0  0  0
   23.2627   55.4852   89.0863 C   0  0  0  0  0  0  0  0  0  0  0  0
   21.7009   54.2303   90.1414 C   0  0  0  0  0  0  0  0  0  0  0  0
   23.9741   54.9213   90.8775 C   0  0  0  0  0  0  0  0  0  0  0  0
   27.7966   57.0480   89.3504 C   0  0  0  0  0  0  0  0  0  0  0  0
   25.5337   56.2254   89.5906 O   0  0  0  0  0  0  0  0  0  0  0  0
   22.7793   54.3024   91.0857 C   0  0  0  0  0  0  0  0  0  0  0  0
   24.3224   55.8641   89.3342 C   0  0  0  0  0  0  0  0  0  0  0  0
   28.9392   56.3494   90.8390 O   0  0  0  0  0  0  0  0  0  0  0  0
   23.6191   56.2707   87.3655 C   0  0  0  0  0  0  0  0  0  0  0  0
   28.7294   57.8186   88.2629 N   0  0  0  0  0  0  0  0  0  0  0  0
   28.6095   59.7918   87.3978 C   0  0  0  0  0  0  0  0  0  0  0  0
   21.4133   55.6333   87.7852 C   0  0  0  0  0  0  0  0  0  0  0  0
   28.3260   58.3602   87.7535 C   0  0  0  0  0  0  0  0  0  0  0  0
   22.3477   56.2332   86.8179 C   0  0  0  0  0  0  0  0  0  0  0  0
  3  2  1  0
  4  2  2  0
  6  1  1  0
  7  1  1  0
  8  4  1  0
  8  5  1  0
  9  3  1  0
  9  5  2  0
  9  7  1  0
 10  1  1  0
 11  3  2  0
 12  6  1  0
 14  2  1  0
 15 12  1  0
 15 13  1  0
 16 11  1  0
 16 14  2  0
M  END
>  <ID>  (1) 
conformer_0

$$$$
