
     RDKit          3D

 17 18  0  0  0  0  0  0  0  0999 V2000
   23.2082   56.7224   86.6629 C   0  0  0  0  0  0  0  0  0  0  0  0
   23.1372   55.3882   89.1818 C   0  0  0  0  0  0  0  0  0  0  0  0
   27.8384   57.3411   89.3817 C   0  0  0  0  0  0  0  0  0  0  0  0
   21.7233   54.1281   90.2572 C   0  0  0  0  0  0  0  0  0  0  0  0
   28.4851   58.8736   87.9270 C   0  0  0  0  0  0  0  0  0  0  0  0
   22.6098   54.2114   91.2392 C   0  0  0  0  0  0  0  0  0  0  0  0
   23.9065   54.7323   91.3581 C   0  0  0  0  0  0  0  0  0  0  0  0
   24.4757   55.5081   90.0450 C   0  0  0  0  0  0  0  0  0  0  0  0
   25.6219   55.8390   89.9744 O   0  0  0  0  0  0  0  0  0  0  0  0
   28.9081   56.2829   90.8559 O   0  0  0  0  0  0  0  0  0  0  0  0
   23.5722   56.2555   88.0147 C   0  0  0  0  0  0  0  0  0  0  0  0
   29.2474   58.1886   87.6731 N   0  0  0  0  0  0  0  0  0  0  0  0
   28.9297   59.7305   89.1383 O   0  0  0  0  0  0  0  0  0  0  0  0
   21.7817   54.9238   88.9959 C   0  0  0  0  0  0  0  0  0  0  0  0
   27.4136   56.5366   90.5700 C   0  0  0  0  0  0  0  0  0  0  0  0
   21.4408   55.7213   87.7295 C   0  0  0  0  0  0  0  0  0  0  0  0
   21.9251   56.3019   86.4846 C   0  0  0  0  0  0  0  0  0  0  0  0
  5  3  1  0
  6  4  1  0
  7  6  2  0
  8  2  2  0
  8  7  1  0
  9  8  1  0
 11  1  2  0
 11  2  1  0
 12  5  1  0
 13  5  1  0
 14  2  1  0
 14  4  2  0
 15  3  1  0
 15  9  1  0
 15 10  1  0
 16 14  1  0
 17  1  1  0
 17 16  2  0
M  END
>  <ID>  (1) 
conformer_0

$$$$
