
     RDKit          3D

 15 15  0  0  0  0  0  0  0  0999 V2000
   21.7746   54.4515   89.6228 C   0  0  0  0  0  0  0  0  0  0  0  0
   22.3651   54.2197   90.7469 C   0  0  0  0  0  0  0  0  0  0  0  0
   21.9495   55.9816   87.4600 C   0  0  0  0  0  0  0  0  0  0  0  0
   27.7978   57.0510   89.6103 C   0  0  0  0  0  0  0  0  0  0  0  0
   27.8985   58.5738   87.6327 C   0  0  0  0  0  0  0  0  0  0  0  0
   23.3784   56.4469   87.4707 C   0  0  0  0  0  0  0  0  0  0  0  0
   24.2724   55.5740   89.6833 C   0  0  0  0  0  0  0  0  0  0  0  0
   25.5179   55.9873   89.9019 O   0  0  0  0  0  0  0  0  0  0  0  0
   23.5931   54.6356   91.0049 C   0  0  0  0  0  0  0  0  0  0  0  0
   28.7668   56.2785   90.8206 O   0  0  0  0  0  0  0  0  0  0  0  0
   27.5871   59.0978   86.5196 C   0  0  0  0  0  0  0  0  0  0  0  0
   27.1835   56.4270   90.7028 C   0  0  1  0  0  0  0  0  0  0  0  0
   21.5316   55.1549   88.5440 C   0  0  0  0  0  0  0  0  0  0  0  0
   28.4015   59.4457   88.9904 O   0  0  0  0  0  0  0  0  0  0  0  0
   23.5801   55.6760   88.7495 C   0  0  0  0  0  0  0  0  0  0  0  0
  2  1  1  0
  5  4  1  0
  6  3  1  0
  8  7  1  0
  9  2  1  0
  9  7  2  0
 11  5  2  3
 12  4  1  0
 12  8  1  0
 12 10  1  6
 13  1  1  0
 13  3  2  0
 14  5  1  0
 15  6  2  0
 15  7  1  0
M  END
>  <ID>  (1) 
conformer_0

$$$$
