
     RDKit          3D

 16 19  0  0  0  0  0  0  0  0999 V2000
   20.9856   54.9451   88.5927 C   0  0  0  0  0  0  0  0  0  0  0  0
   22.4777   54.1442   91.1838 C   0  0  0  0  0  0  0  0  0  0  0  0
   27.9251   57.4128   89.6076 C   0  0  0  0  0  0  0  0  0  0  0  0
   23.7095   55.5655   88.2730 C   0  0  0  0  0  0  0  0  0  0  0  0
   21.5330   54.2014   89.9480 C   0  0  0  0  0  0  0  0  0  0  0  0
   28.2708   58.9252   88.1456 C   0  0  0  0  0  0  0  0  0  0  0  0
   25.4882   55.9154   89.9648 O   0  0  0  0  0  0  0  0  0  0  0  0
   24.3518   55.4066   89.9395 C   0  0  0  0  0  0  0  0  0  0  0  0
   28.6283   58.5827   89.3071 N   0  0  0  0  0  0  0  0  0  0  0  0
   28.3973   59.9035   86.8423 C   0  0  0  0  0  0  0  0  0  0  0  0
   21.4216   55.7344   87.5034 C   0  0  0  0  0  0  0  0  0  0  0  0
   22.7228   55.9380   87.1520 C   0  0  0  0  0  0  0  0  0  0  0  0
   28.8835   56.0303   90.7684 O   0  0  0  0  0  0  0  0  0  0  0  0
   27.3030   56.3665   90.6213 C   0  0  0  0  0  0  0  0  0  0  0  0
   23.8729   54.6528   91.1909 C   0  0  0  0  0  0  0  0  0  0  0  0
   22.6867   54.9927   89.3315 C   0  0  0  0  0  0  0  0  0  0  0  0
  5  1  1  0
  5  2  2  0
  8  4  1  0
  8  7  1  0
  9  3  1  0
  9  6  1  0
 10  6  1  0
 11  1  2  0
 12  4  2  0
 12 11  1  0
 14  3  1  0
 14  7  1  0
 14 13  1  0
 15  2  1  0
 15  8  1  0
 16  1  1  0
 16  4  1  0
 16  5  1  0
 16  8  1  0
M  END
>  <ID>  (1) 
conformer_0

$$$$
