
     RDKit          3D

 19 20  0  0  0  0  0  0  0  0999 V2000
   24.4016   54.7882   91.4224 C   0  0  0  0  0  0  0  0  0  0  0  0
   21.6833   56.0157   87.1618 C   0  0  0  0  0  0  0  0  0  0  0  0
   26.9948   56.1573   90.8719 C   0  0  0  0  0  0  0  0  0  0  0  0
   21.4829   55.4221   88.3939 C   0  0  0  0  0  0  0  0  0  0  0  0
   22.3113   54.7657   89.5944 C   0  0  0  0  0  0  0  0  0  0  0  0
   28.1126   56.6284   89.9474 C   0  0  0  0  0  0  0  0  0  0  0  0
   25.5631   56.0743   89.9347 O   0  0  0  0  0  0  0  0  0  0  0  0
   24.7555   55.3374   90.6838 C   0  0  0  0  0  0  0  0  0  0  0  0
   28.4103   59.7976   87.2026 C   0  0  0  0  0  0  0  0  0  0  0  0
   22.0727   54.1562   90.8149 C   0  0  0  0  0  0  0  0  0  0  0  0
   23.1478   54.2245   91.7272 C   0  0  0  0  0  0  0  0  0  0  0  0
   28.6817   58.1243   88.5691 N   0  0  0  0  0  0  0  0  0  0  0  0
   29.1186   56.3347   90.7529 O   0  0  0  0  0  0  0  0  0  0  0  0
   23.4321   55.5227   89.2391 C   0  0  0  0  0  0  0  0  0  0  0  0
   27.7342   57.4494   88.7520 C   0  0  0  0  0  0  0  0  0  0  0  0
   22.9355   56.3710   86.6688 C   0  0  0  0  0  0  0  0  0  0  0  0
   24.0316   56.0618   87.5236 C   0  0  0  0  0  0  0  0  0  0  0  0
   23.9518   55.8648   88.9026 C   0  0  0  0  0  0  0  0  0  0  0  0
   28.4420   59.0148   87.9095 C   0  0  0  0  0  0  0  0  0  0  0  0
  4  2  2  0
  5  4  1  0
  6  3  1  0
  7  3  1  0
  8  1  2  0
  8  7  1  0
 10  5  1  0
 11  1  1  0
 11 10  2  0
 13  6  1  0
 14  5  2  0
 14  8  1  0
 15  6  1  0
 15 12  1  0
 16  2  1  0
 17 16  1  0
 18 14  1  0
 18 17  2  0
 19  9  3  0
 19 12  1  0
M  END
>  <ID>  (1) 
conformer_0

$$$$
