
     RDKit          3D

 19 20  0  0  0  0  0  0  0  0999 V2000
   23.2208   54.1757   91.8547 C   0  0  0  0  0  0  0  0  0  0  0  0
   23.0903   55.0655   89.4464 C   0  0  0  0  0  0  0  0  0  0  0  0
   24.1411   54.7656   91.1866 C   0  0  0  0  0  0  0  0  0  0  0  0
   26.8866   56.5117   90.0746 C   0  0  0  0  0  0  0  0  0  0  0  0
   28.3480   59.0753   86.9115 C   0  0  0  0  0  0  0  0  0  0  0  0
   22.0141   53.9751   91.1092 C   0  0  0  0  0  0  0  0  0  0  0  0
   23.7719   56.2274   87.2606 C   0  0  0  0  0  0  0  0  0  0  0  0
   23.6507   55.7059   88.6173 C   0  0  0  0  0  0  0  0  0  0  0  0
   25.6903   56.1849   89.8549 O   0  0  0  0  0  0  0  0  0  0  0  0
   28.5424   56.5486   91.0015 O   0  0  0  0  0  0  0  0  0  0  0  0
   27.9144   56.9890   89.5897 C   0  0  0  0  0  0  0  0  0  0  0  0
   28.5457   57.6436   88.3115 N   0  0  0  0  0  0  0  0  0  0  0  0
   21.8725   54.4316   89.7576 C   0  0  0  0  0  0  0  0  0  0  0  0
   21.3258   55.2054   88.4699 C   0  0  0  0  0  0  0  0  0  0  0  0
   24.5432   55.5232   90.0366 C   0  0  0  0  0  0  0  0  0  0  0  0
   28.6908   60.2776   87.0387 C   0  0  0  0  0  0  0  0  0  0  0  0
   27.9668   58.2407   88.0033 C   0  0  0  0  0  0  0  0  0  0  0  0
   22.4624   56.3926   86.7296 C   0  0  0  0  0  0  0  0  0  0  0  0
   21.3948   55.8478   87.4356 C   0  0  0  0  0  0  0  0  0  0  0  0
  3  1  2  0
  6  1  1  0
  8  2  1  0
  8  7  1  0
  9  4  1  0
 11  4  2  3
 11 10  1  0
 12 11  1  0
 13  2  1  0
 13  6  1  0
 14 13  2  0
 15  2  2  0
 15  3  1  0
 15  9  1  0
 16  5  2  3
 17  5  1  0
 17 12  1  0
 18  7  2  0
 19 14  2  0
 19 18  1  0
M  END
>  <ID>  (1) 
conformer_0

$$$$
