
     RDKit          3D

 17 18  0  0  0  0  0  0  0  0999 V2000
   24.1298   54.6688   91.4788 C   0  0  0  0  0  0  0  0  0  0  0  0
   27.0609   56.6207   90.5626 C   0  0  0  0  0  0  0  0  0  0  0  0
   21.7691   55.7911   87.8467 C   0  0  0  0  0  0  0  0  0  0  0  0
   22.9240   54.0139   91.7797 C   0  0  0  0  0  0  0  0  0  0  0  0
   21.8198   53.9797   90.7032 C   0  0  0  0  0  0  0  0  0  0  0  0
   28.3297   60.1012   87.3309 C   0  0  0  0  0  0  0  0  0  0  0  0
   21.8038   54.9678   88.9800 C   0  0  0  0  0  0  0  0  0  0  0  0
   25.6760   55.9477   89.9559 O   0  0  0  0  0  0  0  0  0  0  0  0
   27.7370   56.9077   89.4489 C   0  0  0  0  0  0  0  0  0  0  0  0
   24.3707   55.5262   89.7925 C   0  0  0  0  0  0  0  0  0  0  0  0
   22.7829   54.7692   89.8365 C   0  0  0  0  0  0  0  0  0  0  0  0
   28.8668   56.5619   90.4291 O   0  0  0  0  0  0  0  0  0  0  0  0
   28.3768   57.7933   87.5806 N   0  0  0  0  0  0  0  0  0  0  0  0
   28.0372   58.4641   87.9422 C   0  0  0  0  0  0  0  0  0  0  0  0
   23.8308   55.8232   88.9502 C   0  0  0  0  0  0  0  0  0  0  0  0
   24.0696   56.5449   87.5389 C   0  0  0  0  0  0  0  0  0  0  0  0
   22.6117   56.2848   86.9668 C   0  0  0  0  0  0  0  0  0  0  0  0
  4  1  2  0
  5  4  1  0
  7  3  2  0
  8  2  1  0
  9  2  1  0
 10  1  1  0
 10  8  1  0
 11  5  2  0
 11  7  1  0
 12  9  1  0
 14  6  1  0
 14  9  1  0
 14 13  1  0
 15 10  2  0
 15 11  1  0
 16 15  1  0
 17  3  1  0
 17 16  2  0
M  END
>  <ID>  (1) 
conformer_0

$$$$
