
     RDKit          3D

 15 16  0  0  0  0  0  0  0  0999 V2000
   21.9301   54.3920   89.8038 C   0  0  0  0  0  0  0  0  0  0  0  0
   22.7582   54.3142   90.9984 C   0  0  0  0  0  0  0  0  0  0  0  0
   27.0623   56.5852   90.5559 C   0  0  0  0  0  0  0  0  0  0  0  0
   23.8407   56.3072   88.0484 C   0  0  0  0  0  0  0  0  0  0  0  0
   23.1673   55.2924   89.1383 C   0  0  0  0  0  0  0  0  0  0  0  0
   27.5484   56.9517   89.1559 C   0  0  0  0  0  0  0  0  0  0  0  0
   24.5401   55.6595   89.8780 C   0  0  0  0  0  0  0  0  0  0  0  0
   28.6560   60.1429   87.7550 C   0  0  0  0  0  0  0  0  0  0  0  0
   24.0893   54.8244   91.2883 C   0  0  0  0  0  0  0  0  0  0  0  0
   28.7482   56.3147   90.5773 O   0  0  0  0  0  0  0  0  0  0  0  0
   25.6292   56.0173   89.5280 O   0  0  0  0  0  0  0  0  0  0  0  0
   21.1751   54.8448   88.6760 C   0  0  0  0  0  0  0  0  0  0  0  0
   27.9702   58.3599   87.7020 C   0  0  0  0  0  0  0  0  0  0  0  0
   22.6971   56.2508   87.1917 C   0  0  0  0  0  0  0  0  0  0  0  0
   21.4461   55.6219   87.5794 C   0  0  0  0  0  0  0  0  0  0  0  0
  2  1  2  0
  5  1  1  0
  5  4  1  0
  6  3  1  0
  7  5  2  0
  9  2  1  0
  9  7  1  0
 10  3  1  0
 11  3  1  0
 11  7  1  0
 12  1  1  0
 13  6  1  0
 13  8  1  0
 14  4  2  0
 15 12  2  0
 15 14  1  0
M  END
>  <ID>  (1) 
conformer_0

$$$$
