
     RDKit          3D

 18 19  0  0  0  0  0  0  0  0999 V2000
   22.1670   54.4823   90.0956 C   0  0  0  0  0  0  0  0  0  0  0  0
   22.5876   56.6216   87.1505 C   0  0  0  0  0  0  0  0  0  0  0  0
   22.8923   54.3259   91.2563 C   0  0  0  0  0  0  0  0  0  0  0  0
   26.8180   56.2432   91.0492 C   0  0  0  0  0  0  0  0  0  0  0  0
   24.2633   54.6667   91.4205 C   0  0  0  0  0  0  0  0  0  0  0  0
   28.4888   59.9035   87.0598 C   0  0  0  0  0  0  0  0  0  0  0  0
   27.8750   56.5613   89.9802 C   0  0  0  0  0  0  0  0  0  0  0  0
   22.3812   55.1599   88.9706 C   0  0  0  0  0  0  0  0  0  0  0  0
   24.6191   55.3963   90.2668 C   0  0  0  0  0  0  0  0  0  0  0  0
   25.7255   55.7283   90.1712 O   0  0  0  0  0  0  0  0  0  0  0  0
   28.8648   56.6860   90.8491 O   0  0  0  0  0  0  0  0  0  0  0  0
   27.5058   57.3113   89.0175 C   0  0  0  0  0  0  0  0  0  0  0  0
   21.0173   55.2011   88.5549 C   0  0  0  0  0  0  0  0  0  0  0  0
   21.3411   55.9402   87.2768 C   0  0  0  0  0  0  0  0  0  0  0  0
   28.3521   58.1668   88.7441 N   0  0  0  0  0  0  0  0  0  0  0  0
   23.8630   55.6297   89.1875 C   0  0  0  0  0  0  0  0  0  0  0  0
   23.6828   56.1042   87.8246 C   0  0  0  0  0  0  0  0  0  0  0  0
   28.1880   58.8552   87.9734 C   0  0  0  0  0  0  0  0  0  0  0  0
  3  1  2  0
  5  3  1  0
  7  4  1  0
  8  1  1  0
  9  5  2  0
 10  4  1  0
 10  9  1  0
 11  7  1  0
 12  7  1  0
 13  8  2  0
 14  2  2  0
 14 13  1  0
 15 12  1  0
 16  8  1  0
 16  9  1  0
 17  2  1  0
 17 16  2  0
 18  6  1  0
 18 15  1  0
M  END
>  <ID>  (1) 
conformer_0

$$$$
