
     RDKit          3D

 18 19  0  0  0  0  0  0  0  0999 V2000
   21.9356   55.1325   88.7614 C   0  0  0  0  0  0  0  0  0  0  0  0
   23.5840   56.1442   87.7752 C   0  0  0  0  0  0  0  0  0  0  0  0
   28.0508   56.7387   90.4871 C   0  0  2  0  0  0  0  0  0  0  0  0
   23.8339   54.7304   91.6016 C   0  0  0  0  0  0  0  0  0  0  0  0
   21.1110   55.5777   87.8081 C   0  0  0  0  0  0  0  0  0  0  0  0
   23.0655   56.5288   86.5601 C   0  0  0  0  0  0  0  0  0  0  0  0
   27.8343   57.4419   88.9012 C   0  0  0  0  0  0  0  0  0  0  0  0
   24.0989   55.2026   90.2885 C   0  0  0  0  0  0  0  0  0  0  0  0
   25.1824   55.5574   90.1977 O   0  0  0  0  0  0  0  0  0  0  0  0
   28.5780   59.6398   87.3108 C   0  0  0  0  0  0  0  0  0  0  0  0
   28.4150   57.8158   88.6987 N   0  0  0  0  0  0  0  0  0  0  0  0
   28.7467   56.4561   91.2544 O   0  0  0  0  0  0  0  0  0  0  0  0
   21.6932   56.2084   86.5774 C   0  0  0  0  0  0  0  0  0  0  0  0
   28.3588   58.7989   87.4727 C   0  0  0  0  0  0  0  0  0  0  0  0
   21.8552   54.3595   90.0621 C   0  0  0  0  0  0  0  0  0  0  0  0
   22.4385   54.1810   91.3316 C   0  0  0  0  0  0  0  0  0  0  0  0
   23.2965   55.4523   89.1054 C   0  0  0  0  0  0  0  0  0  0  0  0
   26.7478   56.4463   90.4093 C   0  0  0  0  0  0  0  0  0  0  0  0
  5  1  1  0
  6  2  2  0
  7  3  1  0
  8  4  2  0
  9  8  1  0
 11  7  1  0
  3 12  1  6
 13  5  2  0
 13  6  1  0
 14 10  2  3
 14 11  1  0
 15  1  1  0
 16  4  1  0
 16 15  2  0
 17  1  2  0
 17  2  1  0
 17  8  1  0
 18  3  1  0
 18  9  1  0
M  END
>  <ID>  (1) 
conformer_0

$$$$
