
     RDKit          3D

 19 21  0  0  0  0  0  0  0  0999 V2000
   23.2121   54.1740   91.8605 C   0  0  0  0  0  0  0  0  0  0  0  0
   23.2848   56.3430   87.1236 C   0  0  0  0  0  0  0  0  0  0  0  0
   24.6275   54.6877   91.7503 C   0  0  0  0  0  0  0  0  0  0  0  0
   27.5225   56.4730   90.8396 C   0  0  0  0  0  0  0  0  0  0  0  0
   22.3243   54.9761   88.9234 C   0  0  0  0  0  0  0  0  0  0  0  0
   21.0414   54.6886   88.9257 C   0  0  0  0  0  0  0  0  0  0  0  0
   27.3707   56.8244   89.7989 C   0  0  0  0  0  0  0  0  0  0  0  0
   27.7660   59.4728   86.4250 C   0  0  0  0  0  0  0  0  0  0  0  0
   24.6168   55.3622   90.3547 C   0  0  0  0  0  0  0  0  0  0  0  0
   25.6451   55.7779   90.1767 O   0  0  0  0  0  0  0  0  0  0  0  0
   21.9956   54.0280   90.7004 C   0  0  0  0  0  0  0  0  0  0  0  0
   27.6885   57.7945   88.7683 C   0  0  0  0  0  0  0  0  0  0  0  0
   23.1913   54.7558   90.2021 C   0  0  1  0  0  0  0  0  0  0  0  0
   23.6920   55.7238   88.5466 C   0  0  0  0  0  0  0  0  0  0  0  0
   28.5553   58.1683   88.5198 N   0  0  0  0  0  0  0  0  0  0  0  0
   29.1555   59.0726   89.1759 O   0  0  0  0  0  0  0  0  0  0  0  0
   28.4243   59.0974   87.4791 C   0  0  0  0  0  0  0  0  0  0  0  0
   20.9398   55.6513   87.6571 C   0  0  0  0  0  0  0  0  0  0  0  0
   21.9375   56.1253   86.8287 C   0  0  0  0  0  0  0  0  0  0  0  0
  3  1  1  0
  6  5  2  0
  7  4  2  3
  9  3  2  0
 10  7  1  0
 10  9  1  0
 11  1  2  0
 12  7  1  0
 13  1  1  0
 13  5  1  1
 13  9  1  0
 13 11  1  0
 14  2  2  0
 14  5  1  0
 15 12  1  0
 16 15  1  0
 17  8  2  3
 17 12  1  0
 18  6  1  0
 19  2  1  0
 19 18  2  0
M  END
>  <ID>  (1) 
conformer_0

$$$$
