
     RDKit          3D

 15 16  0  0  0  0  0  0  0  0999 V2000
   21.7699   54.6825   89.4613 C   0  0  0  0  0  0  0  0  0  0  0  0
   23.1778   56.4667   87.4324 C   0  0  0  0  0  0  0  0  0  0  0  0
   27.3427   56.5909   90.3164 C   0  0  1  0  0  0  0  0  0  0  0  0
   22.3260   54.3130   90.6382 C   0  0  0  0  0  0  0  0  0  0  0  0
   23.1584   55.6388   88.7835 C   0  0  0  0  0  0  0  0  0  0  0  0
   27.7504   57.0921   89.3895 C   0  0  0  0  0  0  0  0  0  0  0  0
   25.3728   55.9673   89.8861 O   0  0  0  0  0  0  0  0  0  0  0  0
   28.9272   55.6158   90.4770 O   0  0  0  0  0  0  0  0  0  0  0  0
   24.2397   55.5245   89.8475 C   0  0  0  0  0  0  0  0  0  0  0  0
   23.5527   54.5770   91.1700 C   0  0  0  0  0  0  0  0  0  0  0  0
   28.4055   58.7874   87.9755 C   0  0  0  0  0  0  0  0  0  0  0  0
   21.1501   55.3516   88.1647 C   0  0  0  0  0  0  0  0  0  0  0  0
   21.8094   56.1480   87.1244 C   0  0  0  0  0  0  0  0  0  0  0  0
   28.9018   58.2245   88.1568 N   0  0  0  0  0  0  0  0  0  0  0  0
   28.3105   59.7552   87.2779 C   0  0  0  0  0  0  0  0  0  0  0  0
  4  1  2  0
  5  1  1  0
  5  2  2  0
  6  3  1  0
  7  3  1  0
  3  8  1  6
  9  5  1  0
  9  7  1  0
 10  4  1  0
 10  9  2  0
 11  6  1  0
 12  1  1  0
 13  2  1  0
 13 12  2  0
 14 11  1  0
 15 11  2  3
M  END
>  <ID>  (1) 
conformer_0

$$$$
