
     RDKit          3D

 18 20  0  0  0  0  0  0  0  0999 V2000
   21.5590   53.9353   90.4362 C   0  0  0  0  0  0  0  0  0  0  0  0
   22.5937   54.1113   91.4592 C   0  0  0  0  0  0  0  0  0  0  0  0
   27.4243   56.6992   90.5942 C   0  0  0  0  0  0  0  0  0  0  0  0
   28.3881   59.9501   86.6898 C   0  0  0  0  0  0  0  0  0  0  0  0
   22.2465   54.8071   89.4156 C   0  0  0  0  0  0  0  0  0  0  0  0
   28.8130   57.3424   87.7925 N   0  0  0  0  0  0  0  0  0  0  0  0
   23.4194   55.4345   89.0063 C   0  0  0  0  0  0  0  0  0  0  0  0
   25.4427   55.7266   90.0319 O   0  0  0  0  0  0  0  0  0  0  0  0
   27.7516   57.0916   89.2952 C   0  0  0  0  0  0  0  0  0  0  0  0
   24.2497   55.3699   89.9545 C   0  0  0  0  0  0  0  0  0  0  0  0
   22.1787   56.1194   87.1178 C   0  0  0  0  0  0  0  0  0  0  0  0
   23.5319   56.1174   87.6546 C   0  0  0  0  0  0  0  0  0  0  0  0
   28.8040   56.5637   90.8796 O   0  0  0  0  0  0  0  0  0  0  0  0
   23.8800   54.7643   91.3437 C   0  0  0  0  0  3  0  0  0  0  0  0
   28.0305   58.2491   87.5391 C   0  0  0  0  0  0  0  0  0  0  0  0
   28.6514   60.2946   87.8785 C   0  0  0  0  0  0  0  0  0  0  0  0
   21.1407   55.6101   87.7976 C   0  0  0  0  0  0  0  0  0  0  0  0
   20.8745   54.6206   88.9041 C   0  0  0  0  0  0  0  0  0  0  0  0
  2  1  2  0
  5  1  1  0
  7  5  2  0
  9  3  1  0
  9  6  1  0
 10  3  1  0
 10  7  1  0
 10  8  1  0
 12  7  1  0
 12 11  2  0
 13  3  1  0
 14  2  1  0
 14 10  1  0
 15  4  1  0
 15  6  1  0
 16  4  1  0
 17 11  1  0
 18  1  1  0
 18  5  1  0
 18 17  2  0
M  RAD  1  14   2
M  END
>  <ID>  (1) 
conformer_0

$$$$
