
     RDKit          3D

 15 17  0  0  0  0  0  0  0  0999 V2000
   27.2841   56.4665   90.4225 C   0  0  0  0  0  0  0  0  0  0  0  0
   23.2913   56.3748   87.5491 C   0  0  0  0  0  0  0  0  0  0  0  0
   22.3748   54.1326   90.9099 C   0  0  0  0  0  0  0  0  0  0  0  0
   21.9526   56.1171   87.2973 C   0  0  0  0  0  0  0  0  0  0  0  0
   21.3340   55.1221   88.4389 C   0  0  0  0  0  0  0  0  0  0  0  0
   27.9002   57.0581   89.1756 C   0  0  0  0  0  0  0  0  0  0  0  0
   25.4762   55.9140   89.9905 O   0  0  0  0  0  0  0  0  0  0  0  0
   24.2697   55.4518   89.9751 C   0  0  0  0  0  3  0  0  0  0  0  0
   28.4022   59.8487   87.2406 C   0  0  0  0  0  0  0  0  0  0  0  0
   23.6268   54.6057   91.3227 C   0  0  0  0  0  0  0  0  0  0  0  0
   28.8780   56.6406   90.7935 O   0  0  0  0  0  0  0  0  0  0  0  0
   28.9556   59.7032   89.1487 O   0  0  0  0  0  0  0  0  0  0  0  0
   23.2034   55.4181   88.9687 C   0  0  0  0  0  0  0  0  0  0  0  0
   28.2524   58.3950   88.0330 C   0  0  0  0  0  0  0  0  0  0  0  0
   21.7458   54.3333   89.7227 C   0  0  0  0  0  0  0  0  0  0  0  0
  4  2  2  0
  5  4  1  0
  6  1  1  0
  7  1  1  0
  8  7  1  0
 10  3  2  0
 10  8  1  0
 11  1  1  0
 13  2  1  0
 13  5  1  0
 13  8  1  0
 14  6  1  0
 14  9  1  0
 14 12  1  0
 15  3  1  0
 15  5  1  0
 15 13  1  0
M  RAD  1   8   2
M  END
>  <ID>  (1) 
conformer_0

$$$$
