
     RDKit          3D

 15 15  0  0  0  0  0  0  0  0999 V2000
   27.6802   57.1649   89.1846 C   0  0  0  0  0  0  0  0  0  0  0  0
   23.6953   54.7460   90.9270 C   0  0  0  0  0  0  0  0  0  0  0  0
   23.5797   55.3414   89.3081 C   0  0  0  0  0  0  0  0  0  0  0  0
   23.5119   56.1258   87.7867 C   0  0  0  0  0  0  0  0  0  0  0  0
   22.3703   54.2680   91.0041 C   0  0  0  0  0  0  0  0  0  0  0  0
   27.8563   58.3696   87.7289 C   0  0  0  0  0  0  0  0  0  0  0  0
   21.5109   54.4724   89.8019 C   0  0  0  0  0  0  0  0  0  0  0  0
   25.8144   56.2532   89.5175 O   0  0  0  0  0  0  0  0  0  0  0  0
   28.8734   56.1625   90.7132 O   0  0  0  0  0  0  0  0  0  0  0  0
   28.3526   59.5835   88.7938 O   0  0  0  0  0  0  0  0  0  0  0  0
   27.5664   59.3664   86.2441 C   0  0  0  0  0  0  0  0  0  0  0  0
   22.2914   55.9144   87.6457 C   0  0  0  0  0  0  0  0  0  0  0  0
   21.4473   55.1801   88.5886 C   0  0  0  0  0  0  0  0  0  0  0  0
   24.6390   55.8913   89.4410 C   0  0  0  0  0  0  0  0  0  0  0  0
   27.5148   56.7249   90.5556 C   0  0  0  0  0  0  0  0  0  0  0  0
  3  2  2  0
  4  3  1  0
  5  2  1  0
  6  1  1  0
  7  5  1  0
 10  6  1  0
 11  6  1  0
 12  4  2  0
 13  7  2  0
 13 12  1  0
 14  3  1  0
 14  8  1  0
 15  1  1  0
 15  8  1  0
 15  9  1  0
M  END
>  <ID>  (1) 
conformer_0

$$$$
