
     RDKit          3D

 19 21  0  0  0  0  0  0  0  0999 V2000
   22.8817   56.6021   86.5856 C   0  0  0  0  0  0  0  0  0  0  0  0
   23.8747   56.4426   87.5869 C   0  0  0  0  0  0  0  0  0  0  0  0
   23.3396   55.4967   89.2042 C   0  0  2  0  0  0  0  0  0  0  0  0
   27.1260   56.3992   90.8309 C   0  0  0  0  0  0  0  0  0  0  0  0
   21.6819   55.4185   88.3709 C   0  0  0  0  0  0  0  0  0  0  0  0
   27.6680   56.6200   89.8461 C   0  0  2  0  0  0  0  0  0  0  0  0
   21.8809   54.0439   90.7774 C   0  0  0  0  0  0  0  0  0  0  0  0
   25.5532   55.8983   89.8454 O   0  0  0  0  0  0  0  0  0  0  0  0
   24.3480   55.5180   89.9009 C   0  0  0  0  0  3  0  0  0  0  0  0
   28.9596   55.9209   90.6824 O   0  0  0  0  0  0  0  0  0  0  0  0
   21.7121   56.0546   87.1638 C   0  0  0  0  0  0  0  0  0  0  0  0
   28.2687   60.6215   88.2541 O   0  0  0  0  0  0  0  0  0  0  0  0
   28.4776   59.2076   87.5224 C   0  0  0  0  0  0  0  0  0  0  0  0
   23.0047   54.1633   91.7648 C   0  0  0  0  0  0  0  0  0  0  0  0
   29.4655   57.4804   87.4621 O   0  0  0  0  0  0  0  0  0  0  0  0
   28.4156   59.1327   87.2408 C   0  0  0  0  0  0  0  0  0  0  0  0
   22.1107   54.6715   89.6516 C   0  0  0  0  0  0  0  0  0  0  0  0
   24.0343   54.7572   91.4329 C   0  0  0  0  0  0  0  0  0  0  0  0
   28.0033   57.6929   88.5322 C   0  0  1  0  0  0  0  0  0  0  0  0
  2  1  2  0
  3  2  1  0
  5  3  1  0
  6  4  1  0
  8  4  1  0
  3  9  1  1
  9  8  1  0
  6 10  1  1
 11  1  1  0
 11  5  2  0
 13 12  1  0
 14  7  1  0
 16 13  2  3
 17  3  1  0
 17  5  1  0
 17  7  2  0
 18  9  1  0
 18 14  2  0
 19  6  1  0
 19 13  1  0
 19 15  1  6
M  RAD  1   9   2
M  END
>  <ID>  (1) 
conformer_0

$$$$
