
     RDKit          3D

 16 17  0  0  0  0  0  0  0  0999 V2000
   22.4031   54.1399   90.9224 C   0  0  0  0  0  0  0  0  0  0  0  0
   23.7588   56.2107   87.9893 C   0  0  0  0  0  0  0  0  0  0  0  0
   27.2683   56.6009   90.0464 C   0  0  0  0  0  0  0  0  0  0  0  0
   23.3487   54.2741   91.8447 C   0  0  0  0  0  0  0  0  0  0  0  0
   23.2793   55.2539   89.3811 C   0  0  0  0  0  0  0  0  0  0  0  0
   23.0100   56.5170   86.9327 C   0  0  0  0  0  0  0  0  0  0  0  0
   24.5342   55.4552   90.0344 C   0  0  0  0  0  0  0  0  0  0  0  0
   27.7017   57.3132   89.2382 C   0  0  0  0  0  0  0  0  0  0  0  0
   25.6905   55.8281   89.7555 O   0  0  0  0  0  0  0  0  0  0  0  0
   28.7895   56.7449   90.6074 O   0  0  0  0  0  0  0  0  0  0  0  0
   22.1014   54.7798   89.3445 C   0  0  0  0  0  0  0  0  0  0  0  0
   28.5738   60.2077   87.7484 C   0  0  0  0  0  0  0  0  0  0  0  0
   24.5401   54.8278   91.6498 C   0  0  0  0  0  0  0  0  0  0  0  0
   28.1453   58.7538   87.9038 C   0  0  0  0  0  0  0  0  0  0  0  0
   21.6817   56.0600   87.0816 C   0  0  0  0  0  0  0  0  0  0  0  0
   21.3187   55.4106   88.1953 C   0  0  0  0  0  0  0  0  0  0  0  0
  4  1  2  0
  5  2  1  0
  6  2  2  0
  7  5  1  0
  8  3  2  0
  9  3  1  0
  9  7  1  0
 10  3  1  0
 11  1  1  0
 11  5  2  0
 13  4  1  0
 13  7  2  0
 14  8  2  0
 14 12  1  0
 15  6  1  0
 16 11  1  0
 16 15  2  0
M  END
>  <ID>  (1) 
conformer_0

$$$$
