
     RDKit          3D

 17 20  0  0  0  0  0  0  0  0999 V2000
   21.2161   55.4360   87.8559 C   0  0  0  0  0  0  0  0  0  0  0  0
   21.4220   54.5532   88.9214 C   0  0  0  0  0  0  0  0  0  0  0  0
   26.8407   56.8545   89.7515 C   0  0  0  0  0  0  0  0  0  0  0  0
   22.6067   54.8374   89.6217 C   0  0  0  0  0  0  0  0  0  0  0  0
   23.4098   56.1702   87.3705 C   0  0  0  0  0  0  0  0  0  0  0  0
   28.1744   59.9415   86.8947 C   0  0  0  0  0  0  0  0  0  0  0  0
   25.3949   56.0103   89.8053 O   0  0  0  0  0  0  0  0  0  0  0  0
   22.0770   55.9363   86.9030 C   0  0  0  0  0  0  0  0  0  0  0  0
   24.1916   55.4439   89.8869 C   0  0  0  0  0  0  0  0  0  0  0  0
   27.8441   57.0488   89.8989 C   0  0  0  0  0  0  0  0  0  0  0  0
   28.2968   58.1702   88.4293 N   0  0  0  0  0  0  0  0  0  0  0  0
   28.7454   56.2090   90.8359 O   0  0  0  0  0  0  0  0  0  0  0  0
   28.1056   58.4871   87.6382 C   0  0  0  0  0  0  0  0  0  0  0  0
   23.5067   55.5956   88.6521 C   0  0  0  0  0  3  0  0  0  0  0  0
   21.6968   53.9162   90.6035 C   0  0  0  0  0  0  0  0  0  0  0  0
   22.7415   54.1487   91.6530 C   0  0  0  0  0  0  0  0  0  0  0  0
   23.9700   54.8446   91.3251 C   0  0  0  0  0  3  0  0  0  0  0  0
  2  1  2  0
  4  2  1  0
  7  3  1  0
  8  1  1  0
  8  5  2  0
  9  4  1  0
  9  7  1  0
 10  3  1  0
 11 10  1  0
 12 10  1  0
 13  6  1  0
 13 11  1  0
 14  4  1  0
 14  5  1  0
 14  9  1  0
 15  2  1  0
 15  4  1  0
 16 15  2  0
 17  9  1  0
 17 16  1  0
M  RAD  2  14   2  17   2
M  END
>  <ID>  (1) 
conformer_0

$$$$
