
     RDKit          3D

 17 19  0  0  0  0  0  0  0  0999 V2000
   23.7324   56.1567   88.4538 C   0  0  0  0  0  0  0  0  0  0  0  0
   22.5408   54.3948   90.5990 C   0  0  0  0  0  0  0  0  0  0  0  0
   27.0434   56.6906   90.6357 C   0  0  0  0  0  0  0  0  0  0  0  0
   22.7551   55.4312   89.1005 C   0  0  0  0  0  0  0  0  0  0  0  0
   23.9342   54.7762   91.0187 C   0  0  0  0  0  0  0  0  0  0  0  0
   27.7655   57.1913   89.3227 C   0  0  0  0  0  0  0  0  0  0  0  0
   24.6735   55.5257   90.0209 C   0  0  0  0  0  0  0  0  0  0  0  0
   28.6776   56.1436   90.6552 O   0  0  0  0  0  0  0  0  0  0  0  0
   20.7926   55.1281   88.3581 C   0  0  0  0  0  0  0  0  0  0  0  0
   29.0009   57.5823   87.4260 N   0  0  0  0  0  0  0  0  0  0  0  0
   25.7480   55.6749   89.5697 O   0  0  0  0  0  0  0  0  0  0  0  0
   28.2839   58.3329   87.5999 C   0  0  0  0  0  0  0  0  0  0  0  0
   21.4618   54.5030   89.5261 C   0  0  0  0  0  0  0  0  0  0  0  0
   27.5534   58.8328   86.5562 C   0  0  0  0  0  0  0  0  0  0  0  0
   29.0472   59.2911   88.7251 O   0  0  0  0  0  0  0  0  0  0  0  0
   21.4185   55.9274   87.3809 C   0  0  0  0  0  0  0  0  0  0  0  0
   22.6862   56.5213   87.3848 C   0  0  0  0  0  0  0  0  0  0  0  0
  4  1  1  0
  4  2  2  0
  5  2  1  0
  6  3  1  0
  7  1  2  0
  7  5  1  0
  8  3  1  0
 11  3  1  0
 11  7  1  0
 12  6  1  0
 12 10  1  0
 13  2  1  0
 13  4  1  0
 13  9  2  0
 14 12  1  0
 15 12  1  0
 16  9  1  0
 17  1  1  0
 17 16  2  0
M  END
>  <ID>  (1) 
conformer_0

$$$$
