
     RDKit          3D

 16 17  0  0  0  0  0  0  0  0999 V2000
   23.6651   56.4573   87.6226 C   0  0  0  0  0  0  0  0  0  0  0  0
   23.7385   55.7268   88.8075 C   0  0  0  0  0  0  0  0  0  0  0  0
   22.9719   54.4145   91.0699 C   0  0  0  0  0  0  0  0  0  0  0  0
   27.5455   56.4382   90.3426 C   0  0  0  0  0  0  0  0  0  0  0  0
   24.2746   54.7293   91.4821 C   0  0  0  0  0  0  0  0  0  0  0  0
   28.6797   59.7952   87.4147 C   0  0  0  0  0  0  0  0  0  0  0  0
   27.9948   57.2391   89.2927 C   0  0  0  0  0  0  0  0  0  0  0  0
   24.4453   55.5868   90.1135 C   0  0  0  0  0  0  0  0  0  0  0  0
   25.5899   56.1304   90.0728 O   0  0  0  0  0  0  0  0  0  0  0  0
   22.4748   54.6502   89.7637 C   0  0  0  0  0  0  0  0  0  0  0  0
   22.4614   56.2721   86.8915 C   0  0  0  0  0  0  0  0  0  0  0  0
   28.8674   56.4357   90.9155 O   0  0  0  0  0  0  0  0  0  0  0  0
   28.6243   57.7432   88.6142 N   0  0  0  0  0  0  0  0  0  0  0  0
   28.1859   58.4569   87.9828 C   0  0  0  0  0  0  0  0  0  0  0  0
   21.6127   55.0158   88.7578 C   0  0  0  0  0  0  0  0  0  0  0  0
   21.4358   55.6357   87.6226 C   0  0  0  0  0  0  0  0  0  0  0  0
  2  1  2  0
  5  3  1  0
  7  4  1  0
  8  2  1  0
  8  5  2  0
  9  4  1  0
  9  8  1  0
 10  2  1  0
 10  3  2  0
 11  1  1  0
 12  4  1  0
 13  7  1  0
 14  6  1  0
 14 13  1  0
 15 10  1  0
 16 11  1  0
 16 15  2  0
M  END
>  <ID>  (1) 
conformer_0

$$$$
