
     RDKit          3D

 17 19  0  0  0  0  0  0  0  0999 V2000
   21.2996   54.4357   89.5780 C   0  0  0  0  0  0  0  0  0  0  0  0
   27.0257   56.5321   90.3776 C   0  0  0  0  0  0  0  0  0  0  0  0
   23.9754   55.9386   88.5523 C   0  0  0  0  0  0  0  0  0  0  0  0
   22.4429   55.3776   88.5540 C   0  0  0  0  0  0  0  0  0  0  0  0
   27.5105   59.1541   86.7604 C   0  0  0  0  0  0  0  0  0  0  0  0
   27.5179   57.1340   89.3151 C   0  0  0  0  0  0  0  0  0  0  0  0
   22.5006   54.1745   91.4086 C   0  0  0  0  0  0  0  0  0  0  0  0
   25.5396   56.0796   89.9721 O   0  0  0  0  0  0  0  0  0  0  0  0
   24.3858   55.5525   90.0503 C   0  0  0  0  0  0  0  0  0  0  0  0
   28.4784   56.2626   90.9227 O   0  0  0  0  0  0  0  0  0  0  0  0
   21.3402   55.5362   87.7949 C   0  0  0  0  0  0  0  0  0  0  0  0
   22.9361   56.3190   87.1680 C   0  0  0  0  0  0  0  0  0  0  0  0
   28.3682   57.6770   88.4652 N   0  0  0  0  0  0  0  0  0  0  0  0
   27.8526   58.1978   87.6665 C   0  0  0  0  0  0  0  0  0  0  0  0
   22.7131   54.7438   90.0745 C   0  0  0  0  0  0  0  0  0  0  0  0
   24.1339   54.8459   91.4547 C   0  0  0  0  0  0  0  0  0  0  0  0
   28.6029   59.9736   87.6462 C   0  0  0  0  0  0  0  0  0  0  0  0
  4  3  1  0
  6  2  1  0
  8  2  1  0
  9  3  1  0
  9  8  1  0
 10  2  1  0
 11  4  1  0
 12  3  1  0
 12  4  1  0
 13  6  1  0
 14  5  1  0
 14 13  1  0
 15  1  1  0
 15  4  1  0
 15  7  1  0
 15  9  1  0
 16  7  2  0
 16  9  1  0
 17  5  1  0
M  END
>  <ID>  (1) 
conformer_0

$$$$
