
     RDKit          3D

 16 19  0  0  0  0  0  0  0  0999 V2000
   27.3145   56.5285   90.6826 C   0  0  0  0  0  0  0  0  0  0  0  0
   23.7402   55.8407   88.2072 C   0  0  0  0  0  3  0  0  0  0  0  0
   22.9473   55.1922   89.2106 C   0  0  0  0  0  0  0  0  0  0  0  0
   22.4910   54.2932   91.0674 C   0  0  0  0  0  0  0  0  0  0  0  0
   23.9008   54.7553   91.0815 C   0  0  0  0  0  3  0  0  0  0  0  0
   27.8411   57.1405   89.4096 C   0  0  0  0  0  0  0  0  0  0  0  0
   24.5359   55.5227   89.8290 C   0  0  0  0  0  0  0  0  0  0  0  0
   25.7396   55.8043   89.8172 O   0  0  0  0  0  0  0  0  0  0  0  0
   21.0865   55.0257   88.5989 C   0  0  0  0  0  0  0  0  0  0  0  0
   21.5870   54.4195   89.8234 C   0  0  0  0  0  0  0  0  0  0  0  0
   28.5563   59.8109   86.8085 C   0  0  0  0  0  0  0  0  0  0  0  0
   28.5879   60.0238   88.8462 O   0  0  0  0  0  0  0  0  0  0  0  0
   28.2844   58.6649   87.8996 C   0  0  0  0  0  0  0  0  0  0  0  0
   29.0173   56.6355   90.6392 O   0  0  0  0  0  0  0  0  0  0  0  0
   21.4413   55.7816   87.4650 C   0  0  0  0  0  0  0  0  0  0  0  0
   22.7812   56.1725   87.1401 C   0  0  0  0  0  0  0  0  0  0  0  0
  3  2  1  0
  5  4  1  0
  6  1  1  0
  7  2  1  0
  7  3  1  0
  7  5  1  0
  8  1  1  0
  8  7  1  0
  9  3  1  0
 10  3  1  0
 10  4  2  0
 10  9  1  0
 13  6  1  0
 13 11  1  0
 13 12  1  0
 14  1  1  0
 15  9  2  0
 16  2  1  0
 16 15  1  0
M  RAD  2   2   2   5   2
M  END
>  <ID>  (1) 
conformer_0

$$$$
