
     RDKit          3D

 14 15  0  0  0  0  0  0  0  0999 V2000
   22.6189   54.4447   90.6938 C   0  0  0  0  0  0  0  0  0  0  0  0
   23.3099   56.1920   87.9072 C   0  0  0  0  0  0  0  0  0  0  0  0
   27.1121   56.4875   90.8994 C   0  0  0  0  0  0  0  0  0  0  0  0
   23.8210   54.6284   91.2801 C   0  0  0  0  0  0  0  0  0  0  0  0
   23.5716   55.5920   89.1363 C   0  0  0  0  0  0  0  0  0  0  0  0
   27.9409   59.5401   86.4822 C   0  0  0  0  0  0  0  0  0  0  0  0
   21.8917   54.8723   89.3000 C   0  0  0  0  0  0  0  0  0  0  0  0
   27.6970   57.0703   89.8342 C   0  0  0  0  0  0  0  0  0  0  0  0
   26.0423   55.7635   90.1518 O   0  0  0  0  0  0  0  0  0  0  0  0
   24.7768   55.3471   90.3608 C   0  0  0  0  0  0  0  0  0  0  0  0
   22.1521   56.2699   86.9689 C   0  0  0  0  0  0  0  0  0  0  0  0
   21.2698   55.4634   87.9834 C   0  0  0  0  0  0  0  0  0  0  0  0
   27.9984   58.3044   88.1632 C   0  0  0  0  0  0  0  0  0  0  0  0
   28.4648   57.8911   88.6294 N   0  0  0  0  0  0  0  0  0  0  0  0
  4  1  2  0
  5  2  1  0
  7  1  1  0
  7  5  1  0
  8  3  1  0
  9  3  1  0
 10  4  1  0
 10  5  2  0
 10  9  1  0
 11  2  2  0
 12  7  2  0
 12 11  1  0
 13  6  1  0
 14  8  1  0
 14 13  1  0
M  END
>  <ID>  (1) 
conformer_0

$$$$
