
     RDKit          3D

 19 20  0  0  0  0  0  0  0  0999 V2000
   23.2579   55.4274   89.1599 C   0  0  0  0  0  0  0  0  0  0  0  0
   21.8694   54.1250   90.7246 C   0  0  0  0  0  0  0  0  0  0  0  0
   26.7928   56.2649   90.4629 C   0  0  0  0  0  0  0  0  0  0  0  0
   22.9383   54.1995   91.6903 C   0  0  0  0  0  0  0  0  0  0  0  0
   23.5596   55.8908   87.7327 C   0  0  0  0  0  0  0  0  0  0  0  0
   24.3607   55.2970   90.0854 C   0  0  0  0  0  0  0  0  0  0  0  0
   27.8943   57.0743   90.3041 C   0  0  1  0  0  0  0  0  0  0  0  0
   25.5862   55.5545   89.8561 O   0  0  0  0  0  0  0  0  0  0  0  0
   24.1007   54.8046   91.4347 C   0  0  0  0  0  0  0  0  0  0  0  0
   28.7728   56.5319   90.9396 O   0  0  0  0  0  0  0  0  0  0  0  0
   27.3476   58.5372   86.7736 C   0  0  0  0  0  0  0  0  0  0  0  0
   22.1335   54.6787   89.5124 C   0  0  0  0  0  0  0  0  0  0  0  0
   22.7061   56.3580   86.7865 C   0  0  0  0  0  0  0  0  0  0  0  0
   27.4851   57.5738   88.8763 C   0  0  0  0  0  0  0  0  0  0  0  0
   28.2124   58.3807   89.0834 N   0  0  0  0  0  0  0  0  0  0  0  0
   21.2588   55.2216   88.5175 C   0  0  0  0  0  0  0  0  0  0  0  0
   21.4295   55.9410   87.3004 C   0  0  0  0  0  0  0  0  0  0  0  0
   28.6761   60.1412   87.6276 C   0  0  0  0  0  0  0  0  0  0  0  0
   28.2108   58.9872   87.6986 C   0  0  0  0  0  0  0  0  0  0  0  0
  4  2  2  0
  5  1  1  0
  6  1  1  0
  7  3  1  0
  8  3  1  0
  8  6  1  0
  9  4  1  0
  9  6  2  0
  7 10  1  6
 12  1  2  0
 12  2  1  0
 13  5  2  0
 14  7  1  0
 15 14  1  0
 16 12  1  0
 17 13  1  0
 17 16  2  0
 19 11  1  0
 19 15  1  0
 19 18  2  3
M  END
>  <ID>  (1) 
conformer_0

$$$$
