
     RDKit          3D

 17 18  0  0  0  0  0  0  0  0999 V2000
   23.6462   56.1765   87.8905 C   0  0  0  0  0  0  0  0  0  0  0  0
   22.1937   54.1509   90.8184 C   0  0  0  0  0  0  0  0  0  0  0  0
   27.7759   56.7783   89.6228 C   0  0  0  0  0  0  0  0  0  0  0  0
   23.1620   54.1932   91.7860 C   0  0  0  0  0  0  0  0  0  0  0  0
   21.8831   54.7428   89.3721 C   0  0  0  0  0  0  0  0  0  0  0  0
   28.5423   59.7928   87.0735 C   0  0  0  0  0  0  0  0  0  0  0  0
   25.2675   56.0793   89.8453 O   0  0  0  0  0  0  0  0  0  0  0  0
   24.2520   55.5130   90.0148 C   0  0  0  0  0  0  0  0  0  0  0  0
   22.7329   56.3382   86.9269 C   0  0  0  0  0  0  0  0  0  0  0  0
   26.9113   56.7439   90.0852 C   0  0  0  0  0  0  0  0  0  0  0  0
   28.5706   55.8340   90.8545 O   0  0  0  0  0  0  0  0  0  0  0  0
   28.6334   57.6334   88.5400 N   0  0  0  0  0  0  0  0  0  0  0  0
   21.0003   55.2072   88.2963 C   0  0  0  0  0  0  0  0  0  0  0  0
   28.2806   58.3470   88.1701 C   0  0  0  0  0  0  0  0  0  0  0  0
   24.3520   54.7468   91.4435 C   0  0  0  0  0  0  0  0  0  0  0  0
   23.0304   55.3012   89.3891 C   0  0  0  0  0  0  0  0  0  0  0  0
   21.4596   55.8547   87.1938 C   0  0  0  0  0  0  0  0  0  0  0  0
  4  2  2  0
  5  2  1  0
  8  7  1  0
  9  1  2  0
 10  3  1  0
 10  7  1  0
 11  3  1  0
 12  3  1  0
 13  5  1  0
 14  6  1  0
 14 12  1  0
 15  4  1  0
 15  8  2  0
 16  1  1  0
 16  5  2  0
 16  8  1  0
 17  9  1  0
 17 13  2  0
M  END
>  <ID>  (1) 
conformer_0

$$$$
