
     RDKit          3D

 14 14  0  0  0  0  0  0  0  0999 V2000
   23.6092   55.9456   88.2396 C   0  0  0  0  0  0  0  0  0  0  0  0
   21.9163   54.6605   89.4399 C   0  0  0  0  0  0  0  0  0  0  0  0
   27.1539   56.5434   90.6294 C   0  0  0  0  0  0  0  0  0  0  0  0
   22.4348   54.3614   90.5712 C   0  0  0  0  0  0  0  0  0  0  0  0
   27.7494   57.2137   89.5354 C   0  0  0  0  0  0  0  0  0  0  0  0
   24.2888   55.5927   89.6606 C   0  0  0  0  0  0  0  0  0  0  0  0
   23.6982   54.7407   91.0601 C   0  0  0  0  0  0  0  0  0  0  0  0
   25.6177   55.8991   89.8075 O   0  0  0  0  0  0  0  0  0  0  0  0
   28.1683   59.4039   86.8396 C   0  0  0  0  0  0  0  0  0  0  0  0
   28.7793   56.1624   90.7710 O   0  0  0  0  0  0  0  0  0  0  0  0
   21.6371   55.3648   88.1707 C   0  0  0  0  0  0  0  0  0  0  0  0
   22.6452   56.1834   87.2761 C   0  0  0  0  0  0  0  0  0  0  0  0
   28.8229   59.2626   89.2674 O   0  0  0  0  0  0  0  0  0  0  0  0
   28.0202   58.5079   88.1079 C   0  0  0  0  0  0  0  0  0  0  0  0
  4  2  2  0
  5  3  1  0
  6  1  2  0
  7  4  1  0
  7  6  1  0
  8  3  1  0
  8  6  1  0
 10  3  1  0
 11  2  2  0
 12  1  2  0
 12 11  1  0
 14  5  1  0
 14  9  1  0
 14 13  1  0
M  END
>  <ID>  (1) 
conformer_0

$$$$
