
     RDKit          3D

 17 18  0  0  0  0  0  0  0  0999 V2000
   23.7092   56.3189   87.9159 C   0  0  0  0  0  0  0  0  0  0  0  0
   21.8456   54.1479   90.1710 C   0  0  0  0  0  0  0  0  0  0  0  0
   22.6103   54.0170   91.3635 C   0  0  0  0  0  0  0  0  0  0  0  0
   27.0766   56.5968   90.7913 C   0  0  1  0  0  0  0  0  0  0  0  0
   22.5778   56.4085   87.1038 C   0  0  0  0  0  0  0  0  0  0  0  0
   27.6069   57.1161   89.3202 C   0  0  0  0  0  0  0  0  0  0  0  0
   25.6863   55.8904   89.9371 O   0  0  0  0  0  0  0  0  0  0  0  0
   23.8885   54.5914   91.3642 C   0  0  0  0  0  0  0  0  0  0  0  0
   27.8739   58.3052   86.6628 C   0  0  0  0  0  0  0  0  0  0  0  0
   24.4066   55.4143   89.9246 C   0  0  0  0  0  0  0  0  0  0  0  0
   28.7095   56.6786   90.9423 O   0  0  0  0  0  0  0  0  0  0  0  0
   23.3522   55.3010   89.2759 C   0  0  0  0  0  0  0  0  0  0  0  0
   28.2056   58.7025   87.7637 C   0  0  0  0  0  0  0  0  0  0  0  0
   28.4131   57.9572   88.6948 N   0  0  0  0  0  0  0  0  0  0  0  0
   21.8520   54.8883   88.9799 C   0  0  0  0  0  0  0  0  0  0  0  0
   21.4874   55.6122   87.7886 C   0  0  0  0  0  0  0  0  0  0  0  0
   28.6292   60.1666   87.4134 C   0  0  0  0  0  0  0  0  0  0  0  0
  3  2  1  0
  5  1  2  0
  6  4  1  0
  7  4  1  0
  8  3  2  0
 10  7  1  0
 10  8  1  0
  4 11  1  6
 12  1  1  0
 12 10  2  0
 13  9  2  3
 14  6  1  0
 14 13  1  0
 15  2  1  0
 15 12  1  0
 16  5  1  0
 16 15  2  0
 17 13  1  0
M  END
>  <ID>  (1) 
conformer_0

$$$$
