
     RDKit          3D

 18 19  0  0  0  0  0  0  0  0999 V2000
   21.9327   54.1065   90.6800 C   0  0  0  0  0  0  0  0  0  0  0  0
   22.2332   54.8409   89.4952 C   0  0  0  0  0  0  0  0  0  0  0  0
   22.9739   54.1343   91.7028 C   0  0  0  0  0  0  0  0  0  0  0  0
   26.6721   56.3851   90.7365 C   0  0  0  0  0  0  0  0  0  0  0  0
   23.4535   55.4173   89.3991 C   0  0  0  0  0  0  0  0  0  0  0  0
   22.6580   56.4342   87.2785 C   0  0  0  0  0  0  0  0  0  0  0  0
   27.8717   56.8417   90.2013 C   0  0  0  0  0  0  0  0  0  0  0  0
   25.8608   55.7320   89.8862 O   0  0  0  0  0  0  0  0  0  0  0  0
   24.6007   55.3919   90.0953 C   0  0  0  0  0  0  0  0  0  0  0  0
   28.3311   59.6632   86.6063 C   0  0  0  0  0  0  0  0  0  0  0  0
   28.7424   58.1320   88.2068 N   0  0  0  0  0  0  0  0  0  0  0  0
   21.4451   55.8560   87.5721 C   0  0  0  0  0  0  0  0  0  0  0  0
   21.1439   55.0166   88.6926 C   0  0  0  0  0  0  0  0  0  0  0  0
   27.7231   57.5127   88.7025 C   0  0  0  0  0  0  0  0  0  0  0  0
   23.7266   56.1532   88.1220 C   0  0  0  0  0  0  0  0  0  0  0  0
   28.4553   57.8676   90.4135 N   0  0  0  0  0  0  0  0  0  0  0  0
   24.1244   54.7573   91.4112 C   0  0  0  0  0  0  0  0  0  0  0  0
   28.3498   58.8929   87.5756 C   0  0  0  0  0  0  0  0  0  0  0  0
  2  1  2  0
  3  1  1  0
  5  2  1  0
  7  4  1  0
  8  4  1  0
  9  5  2  0
  9  8  1  0
 12  6  1  0
 13  2  1  0
 13 12  2  0
 14  7  1  0
 14 11  1  0
 15  5  1  0
 15  6  2  0
 16  7  1  0
 17  3  2  0
 17  9  1  0
 18 10  3  0
 18 11  1  0
M  END
>  <ID>  (1) 
conformer_0

$$$$
