
     RDKit          3D

 16 18  0  0  0  0  0  0  0  0999 V2000
   22.7903   56.1913   87.3990 C   0  0  0  0  0  0  0  0  0  0  0  0
   21.5445   55.6343   87.7884 C   0  0  0  0  0  0  0  0  0  0  0  0
   21.1608   54.8714   88.8548 C   0  0  0  0  0  0  0  0  0  0  0  0
   27.4229   56.4601   90.3112 C   0  0  0  0  0  0  0  0  0  0  0  0
   21.8431   54.3689   89.9828 C   0  0  0  0  0  0  0  0  0  0  0  0
   27.8432   57.1960   88.9384 C   0  0  0  0  0  0  0  0  0  0  0  0
   24.6840   55.6479   89.8942 C   0  0  0  0  0  0  0  0  0  0  0  0
   28.8377   57.7515   87.7863 N   0  0  0  0  0  0  0  0  0  0  0  0
   25.8132   56.0312   89.7747 O   0  0  0  0  0  0  0  0  0  0  0  0
   22.8606   54.3961   90.9952 C   0  0  0  0  0  0  0  0  0  0  0  0
   28.7721   55.9685   90.6395 O   0  0  0  0  0  0  0  0  0  0  0  0
   24.2143   54.7803   91.2173 C   0  0  0  0  0  0  0  0  0  0  0  0
   28.1749   59.9698   86.8542 C   0  0  0  0  0  0  0  0  0  0  0  0
   28.0540   58.6268   87.5468 C   0  0  0  0  0  0  0  0  0  0  0  0
   23.1868   55.3243   89.2689 C   0  0  0  0  0  3  0  0  0  0  0  0
   24.0166   56.1608   88.1363 C   0  0  0  0  0  0  0  0  0  0  0  0
  2  1  2  0
  3  2  1  0
  5  3  2  0
  6  4  1  0
  8  6  1  0
  9  4  1  0
  9  7  1  0
 10  5  1  0
 11  4  1  0
 12  7  1  0
 12 10  2  0
 14  8  1  0
 14 13  1  0
 15  5  1  0
 15  7  1  0
 16  1  1  0
 16  7  1  0
 16 15  1  0
M  RAD  1  15   2
M  END
>  <ID>  (1) 
conformer_0

$$$$
