
     RDKit          3D

 15 17  0  0  0  0  0  0  0  0999 V2000
   21.9648   54.6274   89.7651 C   0  0  0  0  0  0  0  0  0  0  0  0
   22.4177   56.1674   87.0950 C   0  0  0  0  0  0  0  0  0  0  0  0
   22.4900   54.1591   91.1342 C   0  0  0  0  0  0  0  0  0  0  0  0
   27.8768   57.2995   89.4311 C   0  0  0  0  0  0  0  0  0  0  0  0
   23.7249   56.1323   87.4919 C   0  0  0  0  0  0  0  0  0  0  0  0
   28.1778   58.6311   88.0755 C   0  0  0  0  0  0  0  0  0  0  0  0
   23.7688   54.4729   91.5347 C   0  0  0  0  0  0  0  0  0  0  0  0
   25.6065   55.9263   89.9502 O   0  0  0  0  0  0  0  0  0  0  0  0
   24.4633   55.4782   89.9916 C   0  0  0  0  0  0  0  0  0  0  0  0
   23.2573   55.3941   89.1582 C   0  0  2  0  0  0  0  0  0  0  0  0
   27.9200   59.4089   87.1199 C   0  0  0  0  0  0  0  0  0  0  0  0
   28.8062   56.3732   90.9021 O   0  0  0  0  0  0  0  0  0  0  0  0
   21.6604   55.5113   88.1872 C   0  0  2  0  0  0  0  0  0  0  0  0
   29.1257   59.7975   89.0757 O   0  0  0  0  0  0  0  0  0  0  0  0
   27.1371   56.3896   90.7887 C   0  0  1  0  0  0  0  0  0  0  0  0
  3  1  2  0
  5  2  2  0
  6  4  1  0
  7  3  1  0
  9  7  2  0
  9  8  1  0
 10  1  1  0
 10  5  1  6
 10  9  1  0
 11  6  2  3
 13  1  1  0
 13  2  1  6
 13 10  1  0
 14  6  1  0
 15  4  1  0
 15  8  1  0
 15 12  1  6
M  END
>  <ID>  (1) 
conformer_0

$$$$
