
     RDKit          3D

 15 15  0  0  0  0  0  0  0  0999 V2000
   21.2354   55.2806   88.2381 C   0  0  0  0  0  0  0  0  0  0  0  0
   21.5773   54.5920   89.3255 C   0  0  0  0  0  0  0  0  0  0  0  0
   23.4245   56.1596   87.9733 C   0  0  0  0  0  0  0  0  0  0  0  0
   27.4374   56.5504   90.5687 C   0  0  0  0  0  0  0  0  0  0  0  0
   23.6690   55.5798   89.0489 C   0  0  0  0  0  0  0  0  0  0  0  0
   28.1990   59.8356   86.5680 C   0  0  0  0  0  0  0  0  0  0  0  0
   27.6839   57.2756   89.3968 C   0  0  0  0  0  0  0  0  0  0  0  0
   24.7880   55.4274   90.2141 C   0  0  0  0  0  0  0  0  0  0  0  0
   22.1046   56.1049   87.3248 C   0  0  0  0  0  0  0  0  0  0  0  0
   25.8468   55.7766   90.0430 O   0  0  0  0  0  0  0  0  0  0  0  0
   28.7846   55.9714   90.6005 O   0  0  0  0  0  0  0  0  0  0  0  0
   22.3317   54.3399   90.3144 C   0  0  0  0  0  0  0  0  0  0  0  0
   23.5698   54.6385   91.0025 C   0  0  0  0  0  0  0  0  0  0  0  0
   28.3582   58.1612   88.4401 N   0  0  0  0  0  0  0  0  0  0  0  0
   27.9426   58.5514   87.8201 C   0  0  0  0  0  0  0  0  0  0  0  0
  2  1  1  0
  5  3  2  0
  7  4  1  0
  8  5  1  0
  9  1  2  0
  9  3  1  0
 10  4  1  0
 10  8  1  0
 11  4  1  0
 12  2  2  0
 13  8  2  0
 13 12  1  0
 14  7  1  0
 15  6  1  0
 15 14  1  0
M  END
>  <ID>  (1) 
conformer_0

$$$$
