
     RDKit          3D

 20 23  0  0  0  0  0  0  0  0999 V2000
   27.1176   56.2562   90.5739 C   0  0  0  0  0  0  0  0  0  0  0  0
   22.1373   54.0339   91.0117 C   0  0  0  0  0  0  0  0  0  0  0  0
   21.8468   54.5705   89.6518 C   0  0  0  0  0  0  0  0  0  0  0  0
   24.0950   56.0239   88.1543 C   0  0  0  0  0  3  0  0  0  0  0  0
   23.2018   54.2419   91.7644 C   0  0  0  0  0  0  0  0  0  0  0  0
   22.5863   55.6453   88.5665 C   0  0  1  0  0  0  0  0  0  0  0  0
   27.8625   57.2504   90.0869 C   0  0  1  0  0  0  0  0  0  0  0  0
   25.7312   55.9289   89.9339 O   0  0  0  0  0  0  0  0  0  0  0  0
   28.9408   59.7874   89.0636 O   0  0  0  0  0  0  0  0  0  0  0  0
   28.0842   58.9376   86.6949 C   0  0  0  0  0  0  0  0  0  0  0  0
   24.6062   55.4435   90.1254 C   0  0  0  0  0  3  0  0  0  0  0  0
   21.1575   55.5281   88.0575 C   0  0  0  0  0  0  0  0  0  0  0  0
   28.8529   56.6547   90.8794 O   0  0  0  0  0  0  0  0  0  0  0  0
   23.3232   56.6625   86.9730 C   0  0  0  0  0  0  0  0  0  0  0  0
   21.8719   56.4287   86.9215 C   0  0  0  0  0  0  0  0  0  0  0  0
   28.5031   58.0460   88.5970 N   0  0  0  0  0  0  0  0  0  0  0  0
   28.3975   59.0128   87.8337 C   0  0  0  0  0  0  0  0  0  0  0  0
   23.4109   55.1591   89.7008 C   0  0  1  0  0  0  0  0  0  0  0  0
   24.4744   54.7436   91.4342 C   0  0  0  0  0  0  0  0  0  0  0  0
   27.7184   57.3196   88.3568 C   0  0  0  0  0  0  0  0  0  0  0  0
  3  2  2  0
  5  2  1  0
  6  3  1  0
  6  4  1  0
  7  1  1  0
  8  1  1  0
 11  8  1  0
  6 12  1  1
  7 13  1  6
 14  4  1  0
 15 12  2  0
 15 14  1  0
 17  9  1  0
 17 10  2  3
 17 16  1  0
 18  3  1  0
 18  4  1  0
 18  6  1  0
 18 11  1  1
 19  5  2  0
 19 11  1  0
 20  7  1  0
 20 16  1  0
M  RAD  2   4   2  11   2
M  END
>  <ID>  (1) 
conformer_0

$$$$
