
     RDKit          3D

 18 21  0  0  0  0  0  0  0  0999 V2000
   24.0243   54.8440   91.1618 C   0  0  0  0  0  0  0  0  0  0  0  0
   23.9049   55.5818   89.1343 C   0  0  0  0  0  0  0  0  0  0  0  0
   27.1571   56.4376   90.7390 C   0  0  0  0  0  0  0  0  0  0  0  0
   22.6088   54.3878   91.0838 C   0  0  0  0  0  0  0  0  0  0  0  0
   22.4611   55.3940   88.8833 C   0  0  0  0  0  0  0  0  0  0  0  0
   28.8341   60.1717   87.6609 C   0  0  0  0  0  0  0  0  0  0  0  0
   27.8394   57.0173   89.6378 C   0  0  0  0  0  0  0  0  0  0  0  0
   22.1630   54.2470   89.8518 C   0  0  0  0  0  3  0  0  0  0  0  0
   28.4747   57.6562   88.2867 N   0  0  0  0  0  0  0  0  0  0  0  0
   24.6708   55.5021   90.1220 C   0  0  0  0  0  0  0  0  0  0  0  0
   28.9781   56.3898   90.7257 O   0  0  0  0  0  0  0  0  0  0  0  0
   25.8086   55.8293   89.9236 O   0  0  0  0  0  0  0  0  0  0  0  0
   20.8928   54.5537   89.0311 C   0  0  0  0  0  0  0  0  0  0  0  0
   20.8058   55.4138   87.7010 C   0  0  0  0  0  0  0  0  0  0  0  0
   28.1697   58.3386   87.9709 C   0  0  0  0  0  0  0  0  0  0  0  0
   23.3172   56.2895   87.7842 C   0  0  0  0  0  0  0  0  0  0  0  0
   21.9876   56.2164   87.1776 C   0  0  0  0  0  0  0  0  0  0  0  0
   28.2418   59.3464   86.3911 C   0  0  0  0  0  0  0  0  0  0  0  0
  4  1  2  0
  5  2  1  0
  7  3  1  0
  8  4  1  0
  8  5  1  0
  9  7  1  0
 10  1  1  0
 10  2  2  0
 11  7  1  0
 12  3  1  0
 12 10  1  0
 13  5  1  0
 13  8  1  0
 14 13  2  0
 15  9  1  0
 16  2  1  0
 16  5  1  0
 17 14  1  0
 17 16  2  0
 18  6  1  0
 18 15  1  0
M  RAD  1   8   2
M  END
>  <ID>  (1) 
conformer_0

$$$$
