
     RDKit          3D

 17 20  0  0  0  0  0  0  0  0999 V2000
   21.8048   53.8673   90.7440 C   0  0  0  0  0  0  0  0  0  0  0  0
   22.1775   56.2475   87.1137 C   0  0  0  0  0  0  0  0  0  0  0  0
   23.6123   56.7203   87.3300 C   0  0  0  0  0  0  0  0  0  0  0  0
   27.1611   56.2600   90.4931 C   0  0  0  0  0  0  0  0  0  0  0  0
   22.9305   54.1114   91.5223 C   0  0  0  0  0  0  0  0  0  0  0  0
   28.4218   60.1319   87.1253 C   0  0  0  0  0  0  0  0  0  0  0  0
   27.5770   56.9855   89.2496 C   0  0  0  0  0  0  0  0  0  0  0  0
   23.8899   55.9654   88.6356 C   0  0  0  0  0  0  0  0  0  0  0  0
   25.7335   56.0671   89.9598 O   0  0  0  0  0  0  0  0  0  0  0  0
   24.5672   55.5686   89.8548 C   0  0  0  0  0  0  0  0  0  0  0  0
   21.6717   54.5036   89.3117 C   0  0  0  0  0  3  0  0  0  0  0  0
   28.7690   57.0888   90.4771 O   0  0  0  0  0  0  0  0  0  0  0  0
   21.7071   55.5037   88.1297 C   0  0  0  0  0  0  0  0  0  0  0  0
   28.0688   58.6867   88.0805 C   0  0  0  0  0  0  0  0  0  0  0  0
   28.5789   58.0737   88.2141 N   0  0  0  0  0  0  0  0  0  0  0  0
   22.9954   55.0245   89.4650 C   0  0  0  0  0  0  0  0  0  0  0  0
   24.0969   54.7057   91.2351 C   0  0  0  0  0  3  0  0  0  0  0  0
  3  2  1  0
  5  1  2  0
  7  4  1  0
  8  3  2  0
  9  4  1  0
 10  8  1  0
 10  9  1  0
 11  1  1  0
 12  7  1  0
 13  2  2  0
 13 11  1  0
 14  6  1  0
 15  7  1  0
 15 14  1  0
 16  8  1  0
 16 10  1  0
 16 11  1  0
 16 13  1  0
 17  5  1  0
 17 10  1  0
M  RAD  2  11   2  17   2
M  END
>  <ID>  (1) 
conformer_0

$$$$
