
     RDKit          3D

 17 18  0  0  0  0  0  0  0  0999 V2000
   22.8300   54.1726   91.3824 C   0  0  0  0  0  0  0  0  0  0  0  0
   21.8191   54.2726   90.3910 C   0  0  0  0  0  0  0  0  0  0  0  0
   24.0866   54.6907   91.2343 C   0  0  0  0  0  0  0  0  0  0  0  0
   27.5065   56.4887   90.7652 C   0  0  0  0  0  0  0  0  0  0  0  0
   23.2687   55.2797   89.3503 C   0  0  0  0  0  0  0  0  0  0  0  0
   27.8302   57.1617   89.1291 C   0  0  0  0  0  0  0  0  0  0  0  0
   23.6945   55.9232   88.4103 C   0  0  0  0  0  0  0  0  0  0  0  0
   25.9349   55.8109   90.1478 O   0  0  0  0  0  0  0  0  0  0  0  0
   28.2277   60.0502   86.7926 C   0  0  0  0  0  0  0  0  0  0  0  0
   21.7333   55.0016   89.0031 C   0  0  0  0  0  0  0  0  0  0  0  0
   24.6676   55.3995   90.1547 C   0  0  0  0  0  0  0  0  0  0  0  0
   29.0045   56.0656   90.6827 O   0  0  0  0  0  0  0  0  0  0  0  0
   23.2045   56.3953   87.1257 C   0  0  0  0  0  0  0  0  0  0  0  0
   28.0589   58.4957   87.6519 C   0  0  0  0  0  0  0  0  0  0  0  0
   29.7778   58.7631   87.5609 O   0  0  0  0  0  0  0  0  0  0  0  0
   21.0353   55.4979   87.9613 C   0  0  0  0  0  0  0  0  0  0  0  0
   21.8184   56.1918   86.8760 C   0  0  0  0  0  0  0  0  0  0  0  0
  2  1  2  0
  3  1  1  0
  6  4  1  0
  7  5  1  0
  8  4  1  0
 10  2  1  0
 10  5  2  0
 11  3  2  0
 11  5  1  0
 11  8  1  0
 12  4  1  0
 13  7  2  0
 14  6  1  0
 14  9  1  0
 15 14  1  0
 16 10  1  0
 17 13  1  0
 17 16  2  0
M  END
>  <ID>  (1) 
conformer_0

$$$$
