
     RDKit          3D

 19 23  0  0  0  0  0  0  0  0999 V2000
   22.7555   55.1508   89.1303 C   0  0  0  0  0  0  0  0  0  0  0  0
   23.7594   55.9003   88.4897 C   0  0  0  0  0  0  0  0  0  0  0  0
   26.7325   56.6642   89.8359 C   0  0  0  0  0  0  0  0  0  0  0  0
   22.8217   56.3288   87.3856 C   0  0  0  0  0  0  0  0  0  0  0  0
   27.8123   59.4808   86.4518 C   0  0  0  0  0  0  0  0  0  0  0  0
   21.4856   55.8746   87.5520 C   0  0  0  0  0  0  0  0  0  0  0  0
   27.8669   56.3448   90.5365 C   0  0  0  0  0  0  0  0  0  0  0  0
   24.5411   55.4739   89.9195 C   0  0  0  0  0  0  0  0  0  0  0  0
   25.7307   55.6944   89.7950 O   0  0  0  0  0  0  0  0  0  0  0  0
   21.0360   54.9790   88.6425 C   0  0  0  0  0  0  0  0  0  0  0  0
   24.0551   54.8553   91.0917 C   0  0  0  0  0  0  0  0  0  0  0  0
   28.8304   55.8442   90.6813 O   0  0  0  0  0  0  0  0  0  0  0  0
   28.4412   57.6443   88.1413 N   0  0  0  0  0  0  0  0  0  0  0  0
   27.9438   58.8972   87.8206 C   0  0  0  0  0  0  0  0  0  0  0  0
   28.9021   58.4634   89.9982 O   0  0  0  0  0  0  0  0  0  0  0  0
   21.7464   54.3720   89.9321 C   0  0  0  0  0  0  0  0  0  0  0  0
   22.7234   54.3621   91.0647 C   0  0  0  0  0  0  0  0  0  0  0  0
   28.8136   60.0326   87.7507 C   0  0  0  0  0  0  0  0  0  0  0  0
   27.9764   57.4282   89.0299 C   0  0  0  0  0  0  0  0  0  0  0  0
  2  1  1  0
  4  2  2  0
  6  4  1  0
  7  3  1  0
  8  2  1  0
  9  3  1  0
  9  8  1  0
 10  1  2  0
 10  6  1  0
 11  8  2  0
 12  7  1  0
 14  5  1  0
 14 13  1  0
 16  1  1  0
 16 10  1  0
 17 11  1  0
 17 16  2  0
 18  5  1  0
 18 14  1  0
 19  3  1  0
 19  7  1  0
 19 13  1  0
 19 15  1  0
M  END
>  <ID>  (1) 
conformer_0

$$$$
