
     RDKit          3D

 15 18  0  0  0  0  0  0  0  0999 V2000
   22.4882   54.9852   89.3545 C   0  0  2  0  0  0  0  0  0  0  0  0
   23.8172   55.8988   88.5872 C   0  0  0  0  0  3  0  0  0  0  0  0
   27.2607   56.5458   90.5352 C   0  0  2  0  0  0  0  0  0  0  0  0
   22.3097   54.2790   90.6915 C   0  0  0  0  0  0  0  0  0  0  0  0
   23.8368   54.9134   90.8614 C   0  0  0  0  0  0  0  0  0  0  0  0
   27.6832   57.0111   89.4819 C   0  0  0  0  0  0  0  0  0  0  0  0
   24.4197   55.5565   89.8481 C   0  0  0  0  0  0  0  0  0  0  0  0
   28.8473   55.8921   90.5408 O   0  0  0  0  0  0  0  0  0  0  0  0
   28.1411   59.3432   86.7459 C   0  0  0  0  0  0  0  0  0  0  0  0
   25.6417   55.7977   89.9811 O   0  0  0  0  0  0  0  0  0  0  0  0
   28.3238   57.8294   88.5348 N   0  0  0  0  0  0  0  0  0  0  0  0
   22.7174   56.1089   87.7529 C   0  0  0  0  0  0  0  0  0  0  0  0
   27.8389   58.3332   87.5603 C   0  0  0  0  0  0  0  0  0  0  0  0
   21.3837   55.5485   87.9999 C   0  0  0  0  0  0  0  0  0  0  0  0
   21.1268   54.5447   89.2527 C   0  0  0  0  0  0  0  0  0  0  0  0
  1  2  1  6
  4  1  1  0
  5  4  1  0
  6  3  1  0
  7  2  1  0
  7  5  2  0
  3  8  1  6
 10  3  1  0
 10  7  1  0
 11  6  1  0
 12  2  1  0
 13  9  2  3
 13 11  1  0
 14  1  1  0
 14 12  2  0
 15  1  1  0
 15  4  2  0
 15 14  1  0
M  RAD  1   2   2
M  END
>  <ID>  (1) 
conformer_0

$$$$
