
     RDKit          3D

 14 14  0  0  0  0  0  0  0  0999 V2000
   23.6055   54.5436   91.2551 C   0  0  0  0  0  0  0  0  0  0  0  0
   22.5681   54.4364   90.4977 C   0  0  0  0  0  0  0  0  0  0  0  0
   27.1798   56.3129   90.6711 C   0  0  0  0  0  0  0  0  0  0  0  0
   21.4675   55.4236   88.1621 C   0  0  0  0  0  0  0  0  0  0  0  0
   27.8982   56.7881   89.5003 C   0  0  0  0  0  0  0  0  0  0  0  0
   23.5738   55.7822   88.4245 C   0  0  0  0  0  0  0  0  0  0  0  0
   24.3201   55.4491   89.9212 C   0  0  0  0  0  0  0  0  0  0  0  0
   25.5725   55.8516   90.0028 O   0  0  0  0  0  0  0  0  0  0  0  0
   28.8083   56.0109   90.7558 O   0  0  0  0  0  0  0  0  0  0  0  0
   27.6272   59.6900   86.7709 O   0  0  0  0  0  0  0  0  0  0  0  0
   21.9089   54.7334   89.4090 C   0  0  0  0  0  0  0  0  0  0  0  0
   22.5681   56.1606   87.4405 C   0  0  0  0  0  0  0  0  0  0  0  0
   28.0195   57.8935   88.7124 C   0  0  0  0  0  0  0  0  0  0  0  0
   28.0916   58.6911   87.3600 C   0  0  0  0  0  0  0  0  0  0  0  0
  2  1  1  0
  5  3  1  0
  7  1  1  0
  7  6  2  0
  8  3  1  0
  8  7  1  0
  9  3  1  0
 11  2  2  0
 11  4  2  0
 12  4  1  0
 12  6  2  0
 13  5  2  0
 14 10  1  0
 14 13  2  0
M  END
>  <ID>  (1) 
conformer_0

$$$$
