
     RDKit          3D

 20 24  0  0  0  0  0  0  0  0999 V2000
   21.9951   54.1050   90.4940 C   0  0  0  0  0  0  0  0  0  0  0  0
   22.8031   54.0667   91.5412 C   0  0  0  0  0  0  0  0  0  0  0  0
   24.1967   54.7072   91.4779 C   0  0  0  0  0  0  0  0  0  0  0  0
   26.7201   56.3577   90.5511 C   0  0  0  0  0  0  0  0  0  0  0  0
   23.2790   55.0649   89.6925 C   0  0  0  0  0  0  0  0  0  0  0  0
   24.0216   55.9495   88.4901 C   0  0  0  0  0  3  0  0  0  0  0  0
   27.8965   56.9348   90.1721 C   0  0  1  0  0  0  0  0  0  0  0  0
   25.7750   55.7847   90.1243 O   0  0  0  0  0  0  0  0  0  0  0  0
   24.5794   55.3373   90.3090 C   0  0  0  0  0  0  0  0  0  0  0  0
   21.5632   54.7444   89.1047 C   0  0  2  0  0  0  0  0  0  0  0  0
   28.8491   56.3048   90.8215 O   0  0  0  0  0  0  0  0  0  0  0  0
   28.8273   60.2766   88.8355 O   0  0  0  0  0  0  0  0  0  0  0  0
   28.9823   59.3808   87.1738 C   0  0  0  0  0  0  0  0  0  0  0  0
   28.5389   58.2030   88.9099 N   0  0  0  0  0  0  0  0  0  0  0  0
   27.9347   57.5643   88.6940 C   0  0  0  0  0  0  0  0  0  0  0  0
   22.4922   55.6810   88.3511 C   0  0  2  0  0  0  0  0  0  0  0  0
   23.3179   56.5078   86.9842 C   0  0  0  0  0  0  0  0  0  0  0  0
   21.8775   56.2695   86.6289 C   0  0  0  0  0  0  0  0  0  0  0  0
   20.8407   55.5744   87.7452 C   0  0  0  0  0  0  0  0  0  0  0  0
   28.6080   59.3185   87.9200 C   0  0  0  0  0  0  0  0  0  0  0  0
  2  1  2  0
  3  2  1  0
  5  1  1  0
  6  5  1  0
  7  4  1  0
  8  4  1  0
  9  3  2  0
  9  5  1  0
  9  8  1  0
 10  1  1  1
  7 11  1  6
 15  7  1  0
 15 14  1  0
 16  5  1  0
 16  6  1  6
 16 10  1  0
 17  6  1  0
 18 17  1  0
 19 10  1  0
 19 16  1  0
 19 18  2  0
 20 12  1  0
 20 13  2  3
 20 14  1  0
M  RAD  1   6   2
M  END
>  <ID>  (1) 
conformer_0

$$$$
