
     RDKit          3D

 16 16  0  0  0  0  0  0  0  0999 V2000
   26.8798   56.1463   91.0660 C   0  0  0  0  0  0  0  0  0  0  0  0
   23.2264   54.5196   91.2203 C   0  0  0  0  0  0  0  0  0  0  0  0
   23.3887   56.1618   87.8168 C   0  0  0  0  0  0  0  0  0  0  0  0
   23.2138   55.4859   89.0005 C   0  0  0  0  0  0  0  0  0  0  0  0
   22.0705   54.3939   90.5182 C   0  0  0  0  0  0  0  0  0  0  0  0
   27.7566   56.5886   90.2566 C   0  0  2  0  0  0  0  0  0  0  0  0
   24.3601   55.3023   90.1475 C   0  0  0  0  0  0  0  0  0  0  0  0
   25.4861   55.4627   90.1661 O   0  0  0  0  0  0  0  0  0  0  0  0
   22.0505   56.1613   87.2584 C   0  0  0  0  0  0  0  0  0  0  0  0
   21.3700   54.8028   89.3450 C   0  0  0  0  0  0  0  0  0  0  0  0
   27.9643   57.1262   88.7703 C   0  0  0  0  0  0  0  0  0  0  0  0
   27.7330   59.2811   86.3072 C   0  0  0  0  0  0  0  0  0  0  0  0
   29.0561   56.1695   90.6789 O   0  0  0  0  0  0  0  0  0  0  0  0
   28.7781   59.7105   88.4276 O   0  0  0  0  0  0  0  0  0  0  0  0
   21.0787   55.4561   88.1226 C   0  0  0  0  0  0  0  0  0  0  0  0
   28.1234   58.7416   87.3980 C   0  0  0  0  0  0  0  0  0  0  0  0
  4  3  1  0
  5  2  1  0
  6  1  1  0
  7  2  1  0
  7  4  2  0
  8  1  1  0
  8  7  1  0
  9  3  2  0
 10  5  2  0
 11  6  1  0
  6 13  1  6
 15  9  1  0
 15 10  2  0
 16 11  1  0
 16 12  2  3
 16 14  1  0
M  END
>  <ID>  (1) 
conformer_0

$$$$
