
     RDKit          3D

 14 15  0  0  0  0  0  0  0  0999 V2000
   21.4588   55.1928   88.4526 C   0  0  0  0  0  0  0  0  0  0  0  0
   22.4238   54.2387   90.8998 C   0  0  0  0  0  0  0  0  0  0  0  0
   27.1214   56.4267   90.3759 C   0  0  0  0  0  0  0  0  0  0  0  0
   23.6747   54.6174   91.4160 C   0  0  0  0  0  0  0  0  0  0  0  0
   21.9057   55.9986   87.2554 C   0  0  0  0  0  0  0  0  0  0  0  0
   27.7667   57.1075   89.3428 C   0  0  0  0  0  0  0  0  0  0  0  0
   25.5322   55.8369   89.9986 O   0  0  0  0  0  0  0  0  0  0  0  0
   24.3207   55.3974   90.0767 C   0  0  0  0  0  0  0  0  0  0  0  0
   21.9921   54.5960   89.6451 C   0  0  0  0  0  0  0  0  0  0  0  0
   28.7734   56.2142   90.6926 O   0  0  0  0  0  0  0  0  0  0  0  0
   23.2904   56.2146   87.4896 C   0  0  0  0  0  0  0  0  0  0  0  0
   23.4774   55.5130   88.9500 C   0  0  0  0  0  0  0  0  0  0  0  0
   28.0501   58.4747   88.1451 C   0  0  0  0  0  0  0  0  0  0  0  0
   28.6394   60.0591   87.8773 C   0  0  0  0  0  0  0  0  0  0  0  0
  4  2  1  0
  5  1  2  0
  6  3  1  0
  7  3  1  0
  8  4  2  0
  8  7  1  0
  9  1  1  0
  9  2  2  0
 10  3  1  0
 11  5  1  0
 12  8  1  0
 12  9  1  0
 12 11  2  0
 13  6  1  0
 14 13  1  0
M  END
>  <ID>  (1) 
conformer_0

$$$$
