
     RDKit          3D

 18 21  0  0  0  0  0  0  0  0999 V2000
   21.8736   56.1243   87.1097 C   0  0  0  0  0  0  0  0  0  0  0  0
   21.7727   53.9567   90.9088 C   0  0  0  0  0  0  0  0  0  0  0  0
   23.2259   56.4197   86.6985 C   0  0  0  0  0  0  0  0  0  0  0  0
   27.3303   56.5794   90.3893 C   0  0  0  0  0  0  0  0  0  0  0  0
   27.6763   59.1113   86.8683 C   0  0  0  0  0  0  0  0  0  0  0  0
   24.0709   56.1743   87.7196 C   0  0  0  0  0  0  0  0  0  0  0  0
   22.8631   54.1139   91.7984 C   0  0  0  0  0  0  0  0  0  0  0  0
   25.4112   55.9070   89.8672 O   0  0  0  0  0  0  0  0  0  0  0  0
   28.6673   57.1798   87.9371 N   0  0  0  0  0  0  0  0  0  0  0  0
   24.2724   55.4707   89.9322 C   0  0  0  0  0  0  0  0  0  0  0  0
   27.7823   56.8448   89.1642 C   0  0  0  0  0  0  0  0  0  0  0  0
   28.7709   56.3285   90.7247 O   0  0  0  0  0  0  0  0  0  0  0  0
   23.9965   54.6831   91.4955 C   0  0  0  0  0  0  0  0  0  0  0  0
   23.1730   55.3248   89.2462 C   0  0  0  0  0  0  0  0  0  0  0  0
   28.6337   60.2180   87.7948 C   0  0  0  0  0  0  0  0  0  0  0  0
   28.0972   58.4019   88.0710 C   0  0  0  0  0  0  0  0  0  0  0  0
   21.8679   54.5652   89.6894 C   0  0  0  0  0  3  0  0  0  0  0  0
   21.7339   55.4745   88.3547 C   0  0  0  0  0  0  0  0  0  0  0  0
  3  1  1  0
  6  3  2  0
  7  2  2  0
  8  4  1  0
 10  8  1  0
 11  4  1  0
 11  9  1  0
 12  4  1  0
 13  7  1  0
 13 10  2  0
 14  6  1  0
 14 10  1  0
 15  5  1  0
 16  5  1  0
 16  9  1  0
 16 15  1  0
 17  2  1  0
 17 14  1  0
 18  1  2  0
 18 14  1  0
 18 17  1  0
M  RAD  1  17   2
M  END
>  <ID>  (1) 
conformer_0

$$$$
