
     RDKit          3D

 16 18  0  0  0  0  0  0  0  0999 V2000
   21.5521   55.1386   88.7950 C   0  0  0  0  0  0  0  0  0  0  0  0
   22.3841   56.3834   86.8248 C   0  0  0  0  0  0  0  0  0  0  0  0
   27.4151   57.1142   89.4650 C   0  0  0  0  0  0  0  0  0  0  0  0
   22.7276   54.2251   91.2747 C   0  0  0  0  0  0  0  0  0  0  0  0
   21.3226   55.7944   87.6245 C   0  0  0  0  0  0  0  0  0  0  0  0
   27.8282   58.2446   88.1852 C   0  0  0  0  0  0  0  0  0  0  0  0
   25.5176   55.7999   89.8786 O   0  0  0  0  0  0  0  0  0  0  0  0
   24.0427   54.6796   91.4886 C   0  0  0  0  0  0  0  0  0  0  0  0
   24.2952   55.4614   89.8954 C   0  0  0  0  0  3  0  0  0  0  0  0
   29.0940   56.2206   90.5215 O   0  0  0  0  0  0  0  0  0  0  0  0
   29.2275   59.1862   89.0736 O   0  0  0  0  0  0  0  0  0  0  0  0
   27.4183   58.8935   86.4250 C   0  0  0  0  0  0  0  0  0  0  0  0
   22.1132   54.4876   90.0673 C   0  0  0  0  0  0  0  0  0  0  0  0
   23.2665   55.4625   89.1010 C   0  0  0  0  0  0  0  0  0  0  0  0
   27.3991   56.4606   90.5757 C   0  0  0  0  0  0  0  0  0  0  0  0
   23.5757   56.3264   87.5448 C   0  0  0  0  0  0  0  0  0  0  0  0
  5  1  2  0
  5  2  1  0
  6  3  1  0
  8  4  2  0
  9  7  1  0
  9  8  1  0
 11  6  1  0
 12  6  1  0
 13  1  1  0
 13  4  1  0
 14  1  1  0
 14  9  1  0
 14 13  1  0
 15  3  1  0
 15  7  1  0
 15 10  1  0
 16  2  2  0
 16 14  1  0
M  RAD  1   9   2
M  END
>  <ID>  (1) 
conformer_0

$$$$
