
     RDKit          3D

 16 17  0  0  0  0  0  0  0  0999 V2000
   22.6590   56.2870   86.9064 C   0  0  0  0  0  0  0  0  0  0  0  0
   26.9611   56.4444   90.7139 C   0  0  1  0  0  0  0  0  0  0  0  0
   23.7367   56.1796   87.7458 C   0  0  0  0  0  0  0  0  0  0  0  0
   21.4697   55.6505   87.6393 C   0  0  0  0  0  0  0  0  0  0  0  0
   22.4051   54.1203   91.4072 C   0  0  0  0  0  0  0  0  0  0  0  0
   27.8635   57.1252   89.4987 C   0  0  0  0  0  0  0  0  0  0  0  0
   25.4515   55.9465   89.8580 O   0  0  0  0  0  0  0  0  0  0  0  0
   24.2592   55.4647   89.8807 C   0  0  0  0  0  0  0  0  0  0  0  0
   23.6795   54.7001   91.3829 C   0  0  0  0  0  0  0  0  0  0  0  0
   28.5710   55.7642   90.5450 O   0  0  0  0  0  0  0  0  0  0  0  0
   28.5648   57.6600   88.0824 N   0  0  0  0  0  0  0  0  0  0  0  0
   28.4302   59.5270   87.2638 C   0  0  0  0  0  0  0  0  0  0  0  0
   23.1672   55.3096   89.1946 C   0  0  1  0  0  0  0  0  0  0  0  0
   28.1788   58.4930   87.9053 C   0  0  0  0  0  0  0  0  0  0  0  0
   21.6680   54.9021   88.9123 C   0  0  0  0  0  0  0  0  0  0  0  0
   21.6647   54.1820   90.1672 C   0  0  0  0  0  0  0  0  0  0  0  0
  3  1  2  0
  4  1  1  0
  6  2  1  0
  7  2  1  0
  8  7  1  0
  9  5  1  0
  9  8  2  0
  2 10  1  6
 11  6  1  0
 13  3  1  1
 13  8  1  0
 14 11  1  0
 14 12  2  3
 15  4  2  0
 15 13  1  0
 16  5  2  0
 16 15  1  0
M  END
>  <ID>  (1) 
conformer_0

$$$$
