
     RDKit          3D

 17 18  0  0  0  0  0  0  0  0999 V2000
   23.0224   56.3624   86.7106 C   0  0  0  0  0  0  0  0  0  0  0  0
   21.7709   55.9359   87.4418 C   0  0  0  0  0  0  0  0  0  0  0  0
   21.6853   55.2345   88.6824 C   0  0  0  0  0  0  0  0  0  0  0  0
   28.0900   58.6721   87.6876 C   0  0  0  0  0  0  0  0  0  0  0  0
   27.6109   57.4662   88.3360 C   0  0  0  0  0  0  0  0  0  0  0  0
   21.5813   54.4380   89.8083 C   0  0  0  0  0  0  0  0  0  0  0  0
   22.3645   54.2046   90.9475 C   0  0  0  0  0  0  0  0  0  0  0  0
   25.7616   55.8064   89.8737 O   0  0  0  0  0  0  0  0  0  0  0  0
   28.5716   56.6736   90.9144 O   0  0  0  0  0  0  0  0  0  0  0  0
   24.3983   55.4269   89.9484 C   0  0  0  0  0  0  0  0  0  0  0  0
   27.5908   56.8501   89.9443 C   0  0  0  0  0  0  0  0  0  0  0  0
   23.8674   56.0642   87.7384 C   0  0  0  0  0  0  0  0  0  0  0  0
   28.9325   59.2825   89.2553 O   0  0  0  0  0  0  0  0  0  0  0  0
   28.5892   60.0395   87.6463 C   0  0  0  0  0  0  0  0  0  0  0  0
   23.6432   54.7100   91.0909 C   0  0  0  0  0  0  0  0  0  0  0  0
   23.3598   55.4894   89.0795 C   0  0  0  0  0  0  0  0  0  0  0  0
   26.6186   56.2979   91.1566 C   0  0  0  0  0  0  0  0  0  0  0  0
  2  1  2  0
  3  2  1  0
  5  4  1  0
  6  3  1  0
  7  6  2  0
 10  8  1  0
 11  5  1  0
 11  9  1  0
 12  1  1  0
 14  4  1  0
 14 13  1  0
 15  7  1  0
 15 10  2  0
 16  3  1  0
 16 10  1  0
 16 12  2  0
 17  8  1  0
 17 11  1  0
M  END
>  <ID>  (1) 
conformer_0

$$$$
