
     RDKit          3D

 19 22  0  0  0  0  0  0  0  0999 V2000
   23.7429   54.5789   91.4716 C   0  0  0  0  0  0  0  0  0  0  0  0
   22.1692   53.8941   91.2982 C   0  0  0  0  0  0  0  0  0  0  0  0
   26.6520   56.1160   90.8901 C   0  0  0  0  0  0  0  0  0  0  0  0
   20.7615   55.3778   87.7977 C   0  0  0  0  0  0  0  0  0  0  0  0
   28.2860   59.9900   86.6672 C   0  0  0  0  0  0  0  0  0  0  0  0
   21.8694   56.1785   86.7478 C   0  0  0  0  0  0  0  0  0  0  0  0
   27.8305   56.6549   90.6234 C   0  0  0  0  0  0  0  0  0  0  0  0
   25.3351   55.7739   90.1825 O   0  0  0  0  0  0  0  0  0  0  0  0
   24.1581   55.2596   90.1513 C   0  0  0  0  0  0  0  0  0  0  0  0
   21.2922   54.2722   89.4196 C   0  0  0  0  0  0  0  0  0  0  0  0
   22.5215   54.5229   89.9901 C   0  0  0  0  0  0  0  0  0  0  0  0
   28.3935   58.1088   88.8058 N   0  0  0  0  0  0  0  0  0  0  0  0
   29.0798   56.0220   90.6656 O   0  0  0  0  0  0  0  0  0  0  0  0
   27.7124   57.1771   89.0874 C   0  0  0  0  0  0  0  0  0  0  0  0
   23.6666   55.6337   88.7164 C   0  0  0  0  0  0  0  0  0  0  0  0
   22.1208   55.3791   88.4701 C   0  0  0  0  0  0  0  0  0  0  0  0
   28.7378   60.2734   87.9472 C   0  0  0  0  0  0  0  0  0  0  0  0
   28.1270   58.6039   87.9222 C   0  0  0  0  0  0  0  0  0  0  0  0
   23.3311   56.2960   87.2799 C   0  0  0  0  0  0  0  0  0  0  0  0
  2  1  2  0
  6  4  2  0
  7  3  1  0
  8  3  1  0
  9  1  1  0
  9  8  1  0
 11  2  1  0
 11  9  1  0
 11 10  1  0
 13  7  1  0
 14  7  1  0
 14 12  1  0
 15  9  1  0
 16  4  1  0
 16 10  1  0
 16 11  1  0
 16 15  1  0
 17  5  1  0
 18 12  1  0
 18 17  1  0
 19  6  1  0
 19 15  2  0
M  END
>  <ID>  (1) 
conformer_0

$$$$
