
     RDKit          3D

 15 15  0  0  0  0  0  0  0  0999 V2000
   27.0807   56.6025   90.2110 C   0  0  0  0  0  0  0  0  0  0  0  0
   21.5707   55.7500   87.5442 C   0  0  0  0  0  0  0  0  0  0  0  0
   21.2627   54.9484   88.7976 C   0  0  0  0  0  0  0  0  0  0  0  0
   21.9542   54.5160   89.9213 C   0  0  0  0  0  0  0  0  0  0  0  0
   23.0239   56.2002   87.4587 C   0  0  0  0  0  0  0  0  0  0  0  0
   28.0566   59.4680   86.7490 C   0  0  0  0  0  0  0  0  0  0  0  0
   24.2811   55.5093   89.8741 C   0  0  0  0  0  0  0  0  0  0  0  0
   27.4948   56.9635   89.3659 C   0  0  0  0  0  0  0  0  0  0  0  0
   25.3923   56.1174   89.6137 O   0  0  0  0  0  0  0  0  0  0  0  0
   28.7592   55.8928   90.3896 O   0  0  0  0  0  0  0  0  0  0  0  0
   22.6484   54.2834   91.1050 C   0  0  0  0  0  0  0  0  0  0  0  0
   27.9473   58.5779   87.9300 C   0  0  0  0  0  0  0  0  0  0  0  0
   23.9511   54.6317   91.3392 C   0  0  0  0  0  0  0  0  0  0  0  0
   23.2995   55.5933   88.8254 C   0  0  0  0  0  0  0  0  0  0  0  0
   28.9762   59.0770   89.4075 O   0  0  0  0  0  0  0  0  0  0  0  0
  3  2  1  0
  4  3  2  0
  5  2  2  0
  8  1  1  0
  9  1  1  0
  9  7  1  0
 10  1  1  0
 11  4  2  0
 12  6  1  0
 12  8  1  0
 13  7  1  0
 13 11  1  0
 14  5  1  0
 14  7  2  0
 15 12  1  0
M  END
>  <ID>  (1) 
conformer_0

$$$$
