
     RDKit          3D

 12 12  0  0  0  0  0  0  0  0999 V2000
   22.2250   54.3451   90.3540 C   0  0  0  0  0  0  0  0  0  0  0  0
   23.3184   54.5493   90.9848 C   0  0  0  0  0  0  0  0  0  0  0  0
   22.8254   56.1880   87.4211 C   0  0  0  0  0  0  0  0  0  0  0  0
   27.8630   57.3355   89.3359 C   0  0  0  0  0  0  0  0  0  0  0  0
   28.1764   58.4748   87.9961 C   0  0  0  0  0  0  0  0  0  0  0  0
   21.6616   54.7914   89.1481 C   0  0  0  0  0  0  0  0  0  0  0  0
   23.5452   55.6828   88.5980 C   0  0  0  0  0  0  0  0  0  0  0  0
   24.4298   55.3649   89.9659 C   0  0  0  0  0  0  0  0  0  0  0  0
   25.7623   55.7406   89.9948 O   0  0  0  0  0  0  0  0  0  0  0  0
   28.8819   56.1809   90.8605 O   0  0  0  0  0  0  0  0  0  0  0  0
   21.5223   55.6477   87.8182 C   0  0  0  0  0  0  0  0  0  0  0  0
   27.2004   56.4813   90.5436 C   0  0  0  0  0  0  0  0  0  0  0  0
  2  1  1  0
  5  4  1  0
  6  1  2  0
  7  3  2  0
  8  2  1  0
  8  7  2  0
  9  8  1  0
 11  3  1  0
 11  6  2  0
 12  4  1  0
 12  9  1  0
 12 10  1  0
M  END
>  <ID>  (1) 
conformer_0

$$$$
