
     RDKit          3D

 18 21  0  0  0  0  0  0  0  0999 V2000
   22.9188   56.1357   87.3522 C   0  0  0  0  0  0  0  0  0  0  0  0
   27.5705   56.6756   90.2373 C   0  0  0  0  0  0  0  0  0  0  0  0
   21.5611   55.7909   87.4857 C   0  0  0  0  0  0  0  0  0  0  0  0
   27.4815   59.2782   86.4121 C   0  0  0  0  0  0  0  0  0  0  0  0
   21.0749   54.9728   88.5036 C   0  0  0  0  0  0  0  0  0  0  0  0
   21.6695   54.2789   89.8830 C   0  0  2  0  0  0  0  0  0  0  0  0
   27.5964   57.1787   88.6171 C   0  0  0  0  0  0  0  0  0  0  0  0
   24.4805   55.4746   90.0616 C   0  0  0  0  0  0  0  0  0  0  0  0
   25.5920   55.6828   89.9949 O   0  0  0  0  0  0  0  0  0  0  0  0
   22.5836   54.2177   91.1739 C   0  0  0  0  0  0  0  0  0  0  0  0
   28.7257   56.7711   90.6943 O   0  0  0  0  0  0  0  0  0  0  0  0
   28.6272   57.4931   87.8871 N   0  0  0  0  0  0  0  0  0  0  0  0
   23.8927   54.7889   91.2415 C   0  0  0  0  0  0  0  0  0  0  0  0
   26.6988   56.1206   91.0556 C   0  0  0  0  0  0  0  0  0  0  0  0
   28.4450   59.9927   87.3759 C   0  0  0  0  0  0  0  0  0  0  0  0
   22.6878   55.0537   89.3114 C   0  0  0  0  0  0  0  0  0  0  0  0
   23.8076   55.7992   88.5710 C   0  0  0  0  0  0  0  0  0  0  0  0
   28.3282   58.6820   87.6930 C   0  0  0  0  0  0  0  0  0  0  0  0
  3  1  2  0
  5  3  1  0
  6  5  1  0
  7  2  2  3
  9  8  1  0
  6 10  1  1
 11  2  1  0
 12  7  1  0
 13  8  1  0
 13 10  2  0
 14  2  1  0
 14  9  1  0
 15  4  1  0
 16  5  2  0
 16  6  1  0
 17  1  1  0
 17  8  2  0
 17 16  1  0
 18  4  1  0
 18 12  1  0
 18 15  1  0
M  END
>  <ID>  (1) 
conformer_0

$$$$
