
     RDKit          3D

 18 19  0  0  0  0  0  0  0  0999 V2000
   23.7936   54.7089   91.3983 C   0  0  0  0  0  0  0  0  0  0  0  0
   22.5075   54.1238   91.3781 C   0  0  0  0  0  0  0  0  0  0  0  0
   27.6739   56.7882   90.3698 C   0  0  2  0  0  0  0  0  0  0  0  0
   23.6188   56.1059   88.1416 C   0  0  0  0  0  0  0  0  0  0  0  0
   27.7585   57.5524   88.7190 C   0  0  0  0  0  0  0  0  0  0  0  0
   23.0991   55.1860   89.3592 C   0  0  0  0  0  0  0  0  0  0  0  0
   25.5408   55.8866   89.8594 O   0  0  0  0  0  0  0  0  0  0  0  0
   24.3840   55.4860   89.9336 C   0  0  2  0  0  0  0  0  0  0  0  0
   28.9872   55.8901   90.3462 O   0  0  0  0  0  0  0  0  0  0  0  0
   27.8481   59.0245   86.2155 C   0  0  0  0  0  0  0  0  0  0  0  0
   21.7069   54.1955   90.1598 C   0  0  0  0  0  0  0  0  0  0  0  0
   21.3612   54.7779   88.9681 C   0  0  0  0  0  0  0  0  0  0  0  0
   26.8315   56.3666   90.9122 C   0  0  0  0  0  0  0  0  0  0  0  0
   28.2185   57.5634   87.9669 N   0  0  0  0  0  0  0  0  0  0  0  0
   28.5626   59.7005   88.6133 O   0  0  0  0  0  0  0  0  0  0  0  0
   21.3431   55.5614   87.7631 C   0  0  0  0  0  0  0  0  0  0  0  0
   22.5807   56.1742   87.2593 C   0  0  0  0  0  0  0  0  0  0  0  0
   27.9148   58.5691   87.1682 C   0  0  0  0  0  0  0  0  0  0  0  0
  2  1  2  0
  5  3  1  0
  6  4  2  0
  8  1  1  0
  8  6  1  0
  8  7  1  6
  3  9  1  6
 11  2  1  0
 12  6  1  0
 12 11  2  0
 13  3  1  0
 13  7  1  0
 14  5  1  0
 16 12  1  0
 17  4  1  0
 17 16  2  0
 18 10  2  3
 18 14  1  0
 18 15  1  0
M  END
>  <ID>  (1) 
conformer_0

$$$$
