
     RDKit          3D

 20 24  0  0  0  0  0  0  0  0999 V2000
   21.4560   55.5267   87.6259 C   0  0  0  0  0  3  0  0  0  0  0  0
   24.2499   56.2531   87.8289 C   0  0  0  0  0  3  0  0  0  0  0  0
   23.1495   54.9477   89.5652 C   0  0  1  0  0  0  0  0  0  0  0  0
   27.1993   56.4385   90.5493 C   0  0  2  0  0  0  0  0  0  0  0  0
   21.6794   54.2617   89.6278 C   0  0  0  0  0  3  0  0  0  0  0  0
   28.0819   59.1820   86.4873 C   0  0  0  0  0  0  0  0  0  0  0  0
   24.0803   54.8486   91.5899 C   0  0  0  0  0  0  0  0  0  0  0  0
   25.2797   55.9876   89.8887 O   0  0  0  0  0  0  0  0  0  0  0  0
   27.7953   57.1913   89.5270 C   0  0  0  0  0  0  0  0  0  0  0  0
   24.2220   55.1506   90.5889 C   0  0  0  0  0  0  0  0  0  0  0  0
   28.6965   55.9585   90.5529 O   0  0  0  0  0  0  0  0  0  0  0  0
   21.9100   53.9191   90.9645 C   0  0  0  0  0  0  0  0  0  0  0  0
   22.4535   55.6171   88.5397 C   0  0  2  0  0  0  0  0  0  0  0  0
   28.2698   58.1615   88.5827 N   0  0  0  0  0  0  0  0  0  0  0  0
   28.1760   58.5961   87.9735 C   0  0  0  0  0  0  0  0  0  0  0  0
   23.5325   56.6046   86.5178 C   0  0  0  0  0  0  0  0  0  0  0  0
   22.1279   56.5149   86.5986 C   0  0  0  0  0  0  0  0  0  0  0  0
   28.9376   60.1750   88.0110 C   0  0  0  0  0  0  0  0  0  0  0  0
   24.0949   56.0670   88.8204 C   0  0  1  0  0  0  0  0  0  0  0  0
   22.8765   54.1475   91.8363 C   0  0  0  0  0  0  0  0  0  0  0  0
  3  5  1  6
  7  4  1  0
  9  4  1  0
 10  3  1  0
 10  7  2  0
 10  8  1  0
  4 11  1  6
 12  5  1  0
 13  1  1  6
 13  3  1  0
 13  5  1  0
 14  9  1  0
 15  6  1  0
 15 14  2  3
 16  2  1  0
 17  1  1  0
 17 16  2  0
 18 15  1  0
 19  2  1  6
 19  3  1  0
 19  8  1  0
 19 13  1  0
 20  7  1  0
 20 12  2  0
M  RAD  3   1   2   2   2   5   2
M  END
>  <ID>  (1) 
conformer_0

$$$$
