
     RDKit          3D

 20 22  0  0  0  0  0  0  0  0999 V2000
   23.2362   55.7755   88.6585 C   0  0  2  0  0  0  0  0  0  0  0  0
   22.7560   56.4928   86.5488 C   0  0  0  0  0  0  0  0  0  0  0  0
   24.0021   55.9573   87.1527 C   0  0  0  0  0  3  0  0  0  0  0  0
   26.8452   56.1691   90.9026 C   0  0  0  0  0  0  0  0  0  0  0  0
   27.7317   56.7823   89.9622 C   0  0  2  0  0  0  0  0  0  0  0  0
   21.3389   55.5061   88.3676 C   0  0  0  0  0  0  0  0  0  0  0  0
   21.7994   54.3026   90.1273 C   0  0  0  0  0  0  0  0  0  0  0  0
   25.4507   55.9013   89.8925 O   0  0  0  0  0  0  0  0  0  0  0  0
   24.2653   55.4479   89.9807 C   0  0  1  0  0  0  0  0  0  0  0  0
   28.8253   60.1203   88.8474 O   0  0  0  0  0  0  0  0  0  0  0  0
   28.9419   57.3117   87.7567 N   0  0  0  0  0  0  0  0  0  0  0  0
   24.2334   54.9296   91.4218 C   0  0  0  0  0  0  0  0  0  0  0  0
   21.5939   56.1569   87.1934 C   0  0  0  0  0  0  0  0  0  0  0  0
   27.9184   57.6452   88.3936 C   0  0  2  0  0  0  0  0  0  0  0  0
   28.2472   59.5935   86.7604 C   0  0  0  0  0  0  0  0  0  0  0  0
   28.8764   56.4889   90.5367 O   0  0  0  0  0  0  0  0  0  0  0  0
   22.1217   53.8814   91.4718 C   0  0  0  0  0  0  0  0  0  0  0  0
   23.3643   54.1994   92.1270 C   0  0  0  0  0  0  0  0  0  0  0  0
   28.4738   58.9942   87.5178 C   0  0  0  0  0  0  0  0  0  0  0  0
   22.7653   54.9640   89.6357 C   0  0  0  0  0  3  0  0  0  0  0  0
  1  3  1  1
  3  2  1  0
  5  4  1  0
  6  1  1  0
  8  4  1  0
  9  1  1  0
  9  8  1  6
 12  9  1  0
 13  2  2  0
 13  6  1  0
 14  5  1  0
 14 11  1  6
  5 16  1  6
 17  7  2  0
 18 12  2  0
 18 17  1  0
 19 10  1  0
 19 14  1  0
 19 15  2  3
 20  1  1  0
 20  7  1  0
 20  9  1  0
M  RAD  2   3   2  20   2
M  END
>  <ID>  (1) 
conformer_0

$$$$
