
     RDKit          3D

 15 16  0  0  0  0  0  0  0  0999 V2000
   23.2926   55.2644   89.2743 C   0  0  0  0  0  0  0  0  0  0  0  0
   22.4534   54.0319   91.1730 C   0  0  0  0  0  0  0  0  0  0  0  0
   27.3004   56.4037   90.5039 C   0  0  0  0  0  0  0  0  0  0  0  0
   23.8549   54.5077   91.4550 C   0  0  0  0  0  0  0  0  0  0  0  0
   21.9128   54.2785   89.8987 C   0  0  0  0  0  0  0  0  0  0  0  0
   27.8113   57.1185   89.3457 C   0  0  0  0  0  0  0  0  0  0  0  0
   25.5814   55.5981   90.2728 O   0  0  0  0  0  0  0  0  0  0  0  0
   24.3531   55.2054   90.2197 C   0  0  0  0  0  0  0  0  0  0  0  0
   28.1787   59.8385   86.7803 C   0  0  0  0  0  0  0  0  0  0  0  0
   21.5122   54.8947   88.7872 C   0  0  0  0  0  0  0  0  0  0  0  0
   23.6052   56.0795   88.1180 C   0  0  0  0  0  0  0  0  0  0  0  0
   28.3346   57.9252   88.5290 N   0  0  0  0  0  0  0  0  0  0  0  0
   28.1373   58.5441   87.6106 C   0  0  0  0  0  0  0  0  0  0  0  0
   22.6091   56.3425   87.1562 C   0  0  0  0  0  0  0  0  0  0  0  0
   21.3398   55.6493   87.6336 C   0  0  0  0  0  0  0  0  0  0  0  0
  4  2  2  0
  5  1  1  0
  5  2  1  0
  6  3  1  0
  7  3  1  0
  8  1  2  0
  8  4  1  0
  8  7  1  0
 10  5  1  0
 11  1  1  0
 12  6  1  0
 13  9  1  0
 13 12  1  0
 14 11  2  0
 15 10  2  0
 15 14  1  0
M  END
>  <ID>  (1) 
conformer_0

$$$$
