
     RDKit          3D

 18 20  0  0  0  0  0  0  0  0999 V2000
   26.4800   56.3690   90.7206 C   0  0  0  0  0  0  0  0  0  0  0  0
   23.6851   56.2911   87.0102 C   0  0  0  0  0  0  0  0  0  0  0  0
   22.6624   54.0973   91.6278 C   0  0  0  0  0  0  0  0  0  0  0  0
   22.7860   54.9279   89.5339 C   0  0  0  0  0  0  0  0  0  0  0  0
   23.8219   55.8341   88.3816 C   0  0  0  0  0  0  0  0  0  0  0  0
   28.2949   59.1853   87.2776 C   0  0  0  0  0  0  0  0  0  0  0  0
   23.9552   54.6654   91.4900 C   0  0  0  0  0  3  0  0  0  0  0  0
   25.2512   55.9268   90.0918 O   0  0  0  0  0  0  0  0  0  0  0  0
   24.1632   55.4049   89.9691 C   0  0  2  0  0  0  0  0  0  0  0  0
   28.4475   57.8561   88.3024 N   0  0  0  0  0  0  0  0  0  0  0  0
   28.8111   56.0257   90.6193 O   0  0  0  0  0  0  0  0  0  0  0  0
   28.7381   59.9136   87.1682 C   0  0  0  0  0  0  0  0  0  0  0  0
   21.7208   54.0410   90.6010 C   0  0  0  0  0  0  0  0  0  0  0  0
   27.7466   56.7562   90.2609 C   0  0  1  0  0  0  0  0  0  0  0  0
   21.6953   54.9051   88.9835 C   0  0  0  0  0  3  0  0  0  0  0  0
   22.2549   56.2223   86.8251 C   0  0  0  0  0  0  0  0  0  0  0  0
   21.4986   55.6762   87.7449 C   0  0  0  0  0  0  0  0  0  0  0  0
   27.9528   57.7157   88.8961 C   0  0  0  0  0  0  0  0  0  0  0  0
  5  2  2  0
  5  4  1  0
  7  3  1  0
  8  1  1  0
  9  4  1  0
  9  5  1  0
  9  7  1  0
  9  8  1  1
 10  6  1  0
 12  6  2  3
 13  3  2  0
 13  4  1  0
 14  1  1  0
 14 11  1  6
 15  4  1  0
 16  2  1  0
 17 15  1  0
 17 16  2  0
 18 10  1  0
 18 14  1  0
M  RAD  2   7   2  15   2
M  END
>  <ID>  (1) 
conformer_0

$$$$
