
     RDKit          3D

 14 15  0  0  0  0  0  0  0  0999 V2000
   27.7116   56.7164   89.9273 C   0  0  0  0  0  0  0  0  0  0  0  0
   22.4271   54.2416   91.1006 C   0  0  0  0  0  0  0  0  0  0  0  0
   23.7062   54.7281   91.2917 C   0  0  0  0  0  0  0  0  0  0  0  0
   23.1346   55.4629   89.1362 C   0  0  0  0  0  0  0  0  0  0  0  0
   21.6799   54.5880   89.8020 C   0  0  0  0  0  0  0  0  0  0  0  0
   21.1241   55.2317   88.4154 C   0  0  0  0  0  0  0  0  0  0  0  0
   25.4761   56.1649   89.6747 O   0  0  0  0  0  0  0  0  0  0  0  0
   28.2121   57.9536   88.4279 C   0  0  0  0  0  0  0  0  0  0  0  0
   24.3143   55.6749   89.7772 C   0  0  0  0  0  0  0  0  0  0  0  0
   28.3300   59.4717   87.4005 C   0  0  0  0  0  0  0  0  0  0  0  0
   28.7893   55.7630   90.6670 O   0  0  0  0  0  0  0  0  0  0  0  0
   21.7278   55.9126   87.3003 C   0  0  0  0  0  0  0  0  0  0  0  0
   23.1862   56.0860   87.4754 C   0  0  0  0  0  0  0  0  0  0  0  0
   28.5013   58.1250   88.9753 N   0  0  0  0  0  0  0  0  0  0  0  0
  3  2  2  0
  5  2  1  0
  5  4  1  0
  6  5  2  0
  7  1  1  0
  9  3  1  0
  9  4  2  0
  9  7  1  0
 10  8  1  0
 11  1  1  0
 12  6  1  0
 13  4  1  0
 13 12  2  0
 14  1  1  0
 14  8  1  0
M  END
>  <ID>  (1) 
conformer_0

$$$$
