
     RDKit          3D

 16 18  0  0  0  0  0  0  0  0999 V2000
   21.4628   54.2030   89.6790 C   0  0  0  0  0  0  0  0  0  0  0  0
   22.8306   55.0615   89.3976 C   0  0  0  0  0  0  0  0  0  0  0  0
   22.3880   54.2713   90.8999 C   0  0  0  0  0  0  0  0  0  0  0  0
   27.7787   56.9912   89.2643 C   0  0  0  0  0  0  0  0  0  0  0  0
   23.7934   55.8893   88.6789 C   0  0  0  0  0  0  0  0  0  0  0  0
   24.6916   55.5648   90.2628 C   0  0  0  0  0  0  0  0  0  0  0  0
   28.0840   58.8919   87.4245 C   0  0  0  0  0  0  0  0  0  0  0  0
   28.1785   59.8574   86.6307 C   0  0  0  0  0  0  0  0  0  0  0  0
   28.9157   55.9631   90.6801 O   0  0  0  0  0  0  0  0  0  0  0  0
   25.7307   55.6926   90.3800 O   0  0  0  0  0  0  0  0  0  0  0  0
   23.8208   54.7289   91.2452 C   0  0  0  0  0  0  0  0  0  0  0  0
   29.4740   58.4256   87.2930 O   0  0  0  0  0  0  0  0  0  0  0  0
   20.9788   54.8758   88.5405 C   0  0  0  0  0  0  0  0  0  0  0  0
   27.4170   56.4088   90.5964 C   0  0  2  0  0  0  0  0  0  0  0  0
   21.5337   55.7181   87.5211 C   0  0  0  0  0  0  0  0  0  0  0  0
   22.8206   56.1390   87.5994 C   0  0  0  0  0  0  0  0  0  0  0  0
  2  1  2  0
  3  1  1  0
  3  2  1  0
  5  2  1  0
  6  5  2  0
  7  4  1  0
  8  7  2  3
 10  6  1  0
 11  3  2  0
 11  6  1  0
 12  7  1  0
 13  1  1  0
 14  4  1  0
 14  9  1  6
 14 10  1  0
 15 13  1  0
 16  5  1  0
 16 15  2  0
M  END
>  <ID>  (1) 
conformer_0

$$$$
