
     RDKit          3D

  4  3  0  0  0  0  0  0  0  0999 V2000
    8.9760   24.2183   30.9617 C   0  0  0  0  0  0  0  0  0  0  0  0
    8.3760   23.6183   29.7617 C   0  0  0  0  0  0  0  0  0  0  0  0
    6.9760   24.0183   29.5617 N   0  0  0  0  0  0  0  0  0  0  0  0
    6.5760   25.0183   30.5617 C   0  0  0  0  0  0  0  0  0  0  0  0
  2  1  1  0
  3  2  1  0
  4  3  1  0
M  END
>  <ID>  (1) 
conformer_0

$$$$
