
     RDKit          3D

  7  7  0  0  0  0  0  0  0  0999 V2000
    7.8363   24.2951   30.3220 C   0  0  0  0  0  0  0  0  0  0  0  0
    8.8363   23.1951   30.3220 C   0  0  0  0  0  0  0  0  0  0  0  0
    9.0363   22.5951   29.0220 C   0  0  0  0  0  0  0  0  0  0  0  0
    8.0363   23.1951   28.1220 C   0  0  0  0  0  0  0  0  0  0  0  0
    7.2363   24.1951   28.8220 C   0  0  0  0  0  0  0  0  0  0  0  0
    5.8363   24.1951   28.9220 N   0  0  0  0  0  0  0  0  0  0  0  0
    5.3363   24.6951   30.2220 C   0  0  0  0  0  0  0  0  0  0  0  0
  2  1  1  0
  3  2  2  0
  4  3  1  0
  5  1  1  0
  5  4  1  0
  6  5  1  0
  7  6  1  0
M  END
>  <ID>  (1) 
conformer_0

$$$$
