
     RDKit          3D

 34 39  0  0  0  0  0  0  0  0999 V2000
    6.1422   25.4278   23.5657 C   0  0  0  0  0  0  0  0  0  0  0  0
    6.4422   26.0278   22.2657 C   0  0  0  0  0  0  0  0  0  0  0  0
    5.3422   26.2278   24.4657 C   0  0  0  0  0  0  0  0  0  0  0  0
    5.3422   26.2278   25.8657 C   0  0  0  0  0  0  0  0  0  0  0  0
    4.4422   27.0278   26.5657 C   0  0  0  0  0  0  0  0  0  0  0  0
    6.2422   25.2278   26.4657 C   0  0  0  0  0  0  0  0  0  0  0  0
    7.2422   24.9278   25.5657 N   0  0  0  0  0  0  0  0  0  0  0  0
    7.1422   24.6278   24.2657 C   0  0  0  0  0  3  0  0  0  0  0  0
    8.4422   24.5278   26.3657 C   0  0  0  0  0  0  0  0  0  0  0  0
    4.4422   28.1278   27.1657 N   0  0  0  0  0  0  0  0  0  0  0  0
    3.8422   29.2278   27.3657 C   0  0  0  0  0  0  0  0  0  0  0  0
    4.0422   30.5278   27.1657 C   0  0  0  0  0  0  0  0  0  0  0  0
    5.2422   30.9278   26.5657 C   0  0  0  0  0  0  0  0  0  0  0  0
    5.2422   32.3278   26.3657 N   0  0  0  0  0  0  0  0  0  0  0  0
    4.7422   27.3278   23.6657 C   0  0  0  0  0  0  0  0  0  0  0  0
    5.9422   29.8278   25.8657 C   0  0  0  0  0  0  0  0  0  0  0  0
    8.4422   25.2278   27.6657 C   0  0  0  0  0  0  0  0  0  0  0  0
    5.4422   33.5278   26.0657 N   0  0  0  0  0  0  0  0  0  0  0  0
    6.7422   25.3278   27.8657 C   0  0  0  0  0  0  0  0  0  0  0  0
    4.1422   27.0278   22.4657 N   0  0  0  0  0  0  0  0  0  0  0  0
    4.0422   25.6278   22.4657 C   0  0  0  0  0  0  0  0  0  0  0  0
    7.8422   23.8278   23.5657 O   0  0  0  0  0  0  0  0  0  0  0  0
    4.3422   33.0278   26.8657 C   0  0  0  0  0  0  0  0  0  0  0  0
    9.4422   24.4278   25.2657 C   0  0  0  0  0  0  0  0  0  0  0  0
    9.9422   23.3278   24.6657 O   0  0  0  0  0  0  0  0  0  0  0  0
    5.3422   25.1278   22.4657 C   0  0  0  0  0  0  0  0  0  0  0  0
    8.9422   23.0278   23.6657 C   0  0  0  0  0  0  0  0  0  0  0  0
    9.4422   22.4278   22.4657 C   0  0  0  0  0  0  0  0  0  0  0  0
   10.5422   22.1278   21.9657 O   0  0  0  0  0  0  0  0  0  0  0  0
    6.6422   23.9278   28.3657 O   0  0  0  0  0  0  0  0  0  0  0  0
    5.9422   34.7278   25.8657 C   0  0  0  0  0  0  0  0  0  0  0  0
    6.2422   30.0278   27.1657 N   0  0  0  0  0  0  0  0  0  0  0  0
    7.6422   23.3278   29.1657 C   0  0  0  0  0  0  0  0  0  0  0  0
    5.5422   29.2278   24.9657 O   0  0  0  0  0  0  0  0  0  0  0  0
  2  1  1  0
  3  1  1  0
  4  3  2  0
  5  4  1  0
  6  4  1  0
  7  6  1  0
  8  1  1  0
  8  7  1  0
  9  7  1  0
 10  5  1  0
 11 10  1  0
 12 11  2  3
 13 12  1  0
 14 13  1  0
 15  3  1  0
 16 13  1  0
 17  9  1  0
 19  6  1  0
 19 17  1  0
 20 15  2  0
 21 20  1  0
 22  8  1  0
 23 14  1  0
 23 18  1  0
 24  9  1  0
 25 24  1  0
 26  1  1  0
 26  2  1  0
 26 21  2  0
 27 22  1  0
 27 25  1  0
 28 27  1  0
 29 28  2  0
 30 19  1  0
 31 18  1  0
 32 13  1  0
 32 16  1  0
 33 30  1  0
 34 16  1  0
M  END
>  <ID>  (1) 
conformer_0

$$$$
