
     RDKit          3D

 27 31  0  0  0  0  0  0  0  0999 V2000
    6.1422   25.4278   23.5657 C   0  0  0  0  0  0  0  0  0  0  0  0
    6.4422   26.0278   22.2657 C   0  0  0  0  0  0  0  0  0  0  0  0
    5.3422   26.2278   24.4657 C   0  0  0  0  0  0  0  0  0  0  0  0
    5.3422   26.2278   25.8657 C   0  0  0  0  0  0  0  0  0  0  0  0
    4.8422   27.1278   26.7657 C   0  0  0  0  0  0  0  0  0  0  0  0
    4.1422   26.7278   27.9657 C   0  0  0  0  0  0  0  0  0  0  0  0
    4.2422   28.2278   26.0657 C   0  0  0  0  0  0  0  0  0  0  0  0
    4.7422   28.5278   24.7657 N   0  0  0  0  0  0  0  0  0  0  0  0
    5.2422   27.6278   23.8657 C   0  0  0  0  0  0  0  0  0  0  0  0
    7.2422   24.7278   24.1657 C   0  0  0  0  0  0  0  0  0  0  0  0
    7.4422   25.1278   25.4657 N   0  0  0  0  0  0  0  0  0  0  0  0
    6.3422   25.2278   26.3657 C   0  0  0  0  0  0  0  0  0  0  0  0
    8.0422   24.0278   23.4657 N   0  0  0  0  0  0  0  0  0  0  0  0
    8.7422   25.5278   25.9657 C   0  0  0  0  0  0  0  0  0  0  0  0
    8.9422   26.5278   26.6657 O   0  0  0  0  0  0  0  0  0  0  0  0
    9.8422   24.5278   25.7657 C   0  0  0  0  0  0  0  0  0  0  0  0
    8.9422   23.0278   23.4657 C   0  0  0  0  0  0  0  0  0  0  0  0
    9.3422   22.2278   22.4657 C   0  0  0  0  0  0  0  0  0  0  0  0
    4.3422   26.4278   29.2657 C   0  0  0  0  0  0  0  0  0  0  0  0
    4.7422   25.3278   29.8657 C   0  0  0  0  0  0  0  0  0  0  0  0
    4.2422   24.7278   30.9657 C   0  0  0  0  0  0  0  0  0  0  0  0
   10.7422   24.8278   26.8657 C   0  0  0  0  0  0  0  0  0  0  0  0
    9.3422   23.2278   25.7657 O   0  0  0  0  0  0  0  0  0  0  0  0
    5.4422   26.6278   21.6657 N   0  0  0  0  0  0  0  0  0  0  0  0
    4.8422   27.4278   22.5657 N   0  0  0  0  0  0  0  0  0  0  0  0
    5.2422   24.3278   30.2657 N   0  0  0  0  0  0  0  0  0  0  0  0
   10.0422   22.7278   23.7657 O   0  0  0  0  0  0  0  0  0  0  0  0
  2  1  1  0
  3  1  2  0
  4  3  1  0
  5  4  1  0
  6  5  1  0
  7  5  1  0
  8  7  1  0
  9  3  1  0
  9  8  2  0
 10  1  1  0
 11 10  1  0
 12  4  2  0
 12 11  1  0
 13 10  1  0
 14 11  1  0
 15 14  2  0
 16 14  1  0
 17 13  1  0
 18 17  1  0
 19  6  1  0
 20 19  1  0
 21 20  1  0
 22 16  1  0
 23 16  1  0
 24  2  1  0
 25  9  1  0
 25 24  2  0
 26 20  1  0
 26 21  1  0
 27 17  1  0
 27 18  1  0
M  END
>  <ID>  (1) 
conformer_0

$$$$
