
     RDKit          3D

 35 44  0  0  0  0  0  0  0  0999 V2000
    6.1422   25.4278   23.5657 C   0  0  0  0  0  0  0  0  0  0  0  0
    6.4422   26.0278   22.2657 C   0  0  0  0  0  0  0  0  0  0  0  0
    5.3422   26.2278   24.4657 C   0  0  0  0  0  3  0  0  0  0  0  0
    5.3422   26.2278   25.8657 C   0  0  0  0  0  0  0  0  0  0  0  0
    4.8422   27.1278   26.7657 C   0  0  0  0  0  0  0  0  0  0  0  0
    4.1422   26.7278   27.9657 C   0  0  0  0  0  0  0  0  0  0  0  0
    4.2422   28.2278   26.0657 C   0  0  0  0  0  0  0  0  0  0  0  0
    4.7422   28.4278   24.7657 N   0  0  0  0  0  0  0  0  0  0  0  0
    4.9422   27.5278   23.7657 C   0  0  0  0  0  0  0  0  0  0  0  0
    7.1422   24.5278   24.1657 C   0  0  0  0  0  0  0  0  0  0  0  0
    7.3422   24.7278   25.5657 N   0  0  0  0  0  0  0  0  0  0  0  0
    4.4422   26.2278   29.2657 C   0  0  0  0  0  0  0  0  0  0  0  0
    6.1422   25.0278   26.3657 C   0  0  0  0  0  0  0  0  0  0  0  0
    4.8422   25.0278   29.7657 C   0  0  0  0  0  0  0  0  0  0  0  0
    5.8422   24.3278   29.9657 N   0  0  0  0  0  4  0  0  0  0  0  0
    7.2422   24.3278   30.0657 C   0  0  0  0  0  0  0  0  0  0  0  0
    8.1422   24.1278   23.3657 C   0  0  0  0  0  0  0  0  0  0  0  0
    9.0422   23.0278   23.5657 C   0  0  0  0  0  0  0  0  0  0  0  0
    9.3422   22.2278   22.5657 C   0  0  0  0  0  0  0  0  0  0  0  0
    8.1422   23.7278   29.1657 C   0  0  0  0  0  0  0  0  0  0  0  0
    7.7422   24.0278   27.7657 N   0  0  0  0  0  0  0  0  0  0  0  0
    6.4422   24.8278   27.7657 C   0  0  0  0  0  0  0  0  0  0  0  0
    5.6422   24.2278   28.7657 N   0  0  0  0  0  0  0  0  0  0  0  0
    6.5422   24.0278   31.1657 C   0  0  0  0  0  0  0  0  0  0  0  0
    9.6422   23.1278   24.7657 N   0  0  0  0  0  0  0  0  0  0  0  0
    9.5422   24.0278   25.7657 C   0  0  0  0  0  0  0  0  0  0  0  0
   10.2422   24.1278   27.0657 C   0  0  0  0  0  0  0  0  0  0  0  0
    4.3422   27.2278   22.4657 N   0  0  0  0  0  0  0  0  0  0  0  0
    3.9422   25.8278   22.4657 C   0  0  0  0  0  0  0  0  0  0  0  0
    5.2422   25.1278   22.3657 C   0  0  0  0  0  0  0  0  0  0  0  0
    9.9422   22.9278   27.8657 C   0  0  0  0  0  0  0  0  0  0  0  0
    9.5422   23.2278   29.2657 C   0  0  0  0  0  0  0  0  0  0  0  0
   10.1422   21.3278   23.2657 O   0  0  0  0  0  0  0  0  0  0  0  0
    9.6422   25.0278   26.5657 O   0  0  0  0  0  0  0  0  0  0  0  0
    7.4422   22.7278   28.2657 C   0  0  0  0  0  0  0  0  0  0  0  0
  2  1  1  0
  3  1  1  0
  4  3  1  0
  5  4  1  0
  6  5  1  0
  7  5  1  0
  8  7  1  0
  9  3  1  0
  9  8  2  0
 10  1  1  0
 11 10  2  0
 12  6  1  0
 13  4  2  0
 13 11  1  0
 14 12  1  0
 15 14  1  0
 16 15  1  0
 17 10  1  0
 18 17  1  0
 19 18  1  0
 20 16  1  0
 21 20  1  0
 22 13  1  0
 22 21  1  0
 23 14  1  0
 23 22  1  0
 24 15  1  0
 24 16  1  0
 25 18  1  0
 26 25  2  0
 27 26  1  0
 28  9  1  0
 29 28  1  0
 30  1  1  0
 30  2  1  0
 30 29  1  0
 31 27  1  0
 32 20  1  0
 32 31  1  0
 33 19  1  0
 34 26  1  0
 34 27  1  0
 35 20  1  0
 35 21  1  0
M  END
>  <ID>  (1) 
conformer_0

$$$$
