
     RDKit          3D

 24 27  0  0  0  0  0  0  0  0999 V2000
    6.1422   25.4278   23.5657 C   0  0  0  0  0  0  0  0  0  0  0  0
    6.4422   26.0278   22.2657 C   0  0  0  0  0  0  0  0  0  0  0  0
    5.3422   26.2278   24.4657 C   0  0  0  0  0  0  0  0  0  0  0  0
    5.3422   26.2278   25.8657 C   0  0  0  0  0  0  0  0  0  0  0  0
    4.4422   27.0278   26.5657 C   0  0  0  0  0  0  0  0  0  0  0  0
    6.2422   25.2278   26.4657 C   0  0  0  0  0  0  0  0  0  0  0  0
    7.2422   24.7278   24.1657 C   0  0  0  0  0  0  0  0  0  0  0  0
    7.2422   24.9278   25.5657 N   0  0  0  0  0  0  0  0  0  0  0  0
    8.3422   24.3278   26.2657 C   0  0  0  0  0  0  0  0  0  0  0  0
    3.6422   27.8278   25.7657 N   0  0  0  0  0  0  0  0  0  0  0  0
    4.8422   27.4278   23.7657 C   0  0  0  0  0  0  0  0  0  0  0  0
    4.2422   28.3278   24.6657 N   0  0  0  0  0  0  0  0  0  0  0  0
    9.7422   24.2278   25.7657 C   0  0  0  0  0  0  0  0  0  0  0  0
    8.1422   23.8278   27.5657 O   0  0  0  0  0  0  0  0  0  0  0  0
    9.3422   23.0278   27.9657 C   0  0  0  0  0  0  0  0  0  0  0  0
   10.3422   23.7278   27.1657 C   0  0  0  0  0  0  0  0  0  0  0  0
    9.5422   22.1278   28.9657 C   0  0  0  0  0  0  0  0  0  0  0  0
    8.5422   21.1278   29.1657 O   0  0  0  0  0  0  0  0  0  0  0  0
   11.0422   24.8278   27.6657 O   0  0  0  0  0  0  0  0  0  0  0  0
    5.2422   26.4278   21.6657 N   0  0  0  0  0  0  0  0  0  0  0  0
    4.0422   25.7278   22.0657 C   0  0  0  0  0  0  0  0  0  0  0  0
    4.0422   24.6278   22.4657 O   0  0  0  0  0  0  0  0  0  0  0  0
    3.2422   29.0278   26.5657 C   0  0  0  0  0  0  0  0  0  0  0  0
    4.3422   26.9278   22.5657 N   0  0  0  0  0  0  0  0  0  0  0  0
  2  1  1  0
  3  1  1  0
  4  3  2  0
  5  4  1  0
  6  4  1  0
  7  1  2  0
  8  6  1  0
  8  7  1  0
  9  8  1  0
 10  5  1  0
 11  3  1  0
 12 10  1  0
 12 11  2  0
 13  9  1  0
 14  9  1  0
 15 14  1  0
 16 13  1  0
 16 15  1  0
 17 15  1  0
 18 17  1  0
 19 16  1  0
 20  2  1  0
 21 20  1  0
 22 21  1  0
 23 10  1  0
 24 11  1  0
 24 21  1  0
M  END
>  <ID>  (1) 
conformer_0

$$$$
