
     RDKit          3D

 26 29  0  0  0  0  0  0  0  0999 V2000
    6.1422   25.4278   23.5657 C   0  0  0  0  0  0  0  0  0  0  0  0
    6.4422   26.0278   22.2657 C   0  0  0  0  0  0  0  0  0  0  0  0
    5.3422   26.2278   24.4657 C   0  0  0  0  0  0  0  0  0  0  0  0
    5.3422   26.2278   25.8657 C   0  0  0  0  0  0  0  0  0  0  0  0
    4.8422   27.1278   26.7657 C   0  0  0  0  0  0  0  0  0  0  0  0
    3.5422   27.6278   26.9657 C   0  0  0  0  0  0  0  0  0  0  0  0
    6.0422   25.0278   26.2657 C   0  0  0  0  0  0  0  0  0  0  0  0
    7.2422   24.7278   24.1657 C   0  0  0  0  0  0  0  0  0  0  0  0
    7.2422   24.8278   25.5657 N   0  0  0  0  0  0  0  0  0  0  0  0
    5.4422   26.9278   28.0657 C   0  0  0  0  0  0  0  0  0  0  0  0
    8.2422   24.2278   23.3657 N   0  0  0  0  0  0  0  0  0  0  0  0
    3.2422   28.1278   28.1657 C   0  0  0  0  0  0  0  0  0  0  0  0
    8.4422   24.5278   26.2657 C   0  0  0  0  0  0  0  0  0  0  0  0
    4.3422   28.9278   28.6657 N   0  0  0  0  0  0  0  0  0  0  0  0
    5.2422   28.1278   29.0657 C   0  0  0  0  0  0  0  0  0  0  0  0
    9.6422   24.1278   25.5657 C   0  0  0  0  0  0  0  0  0  0  0  0
    8.4422   24.5278   27.7657 C   0  0  0  0  0  0  0  0  0  0  0  0
    8.5422   23.1278   28.2657 C   0  0  0  0  0  0  0  0  0  0  0  0
    4.7422   27.2278   23.5657 C   0  0  0  0  0  0  0  0  0  0  0  0
    5.3422   27.0278   22.2657 N   0  0  0  0  0  0  0  0  0  0  0  0
    3.5422   27.7278   23.3657 O   0  0  0  0  0  0  0  0  0  0  0  0
    8.1422   22.9278   29.5657 N   0  0  0  0  0  0  0  0  0  0  0  0
    8.0422   24.0278   30.4657 C   0  0  0  0  0  0  0  0  0  0  0  0
    9.2422   23.4278   23.1657 C   0  0  0  0  0  0  0  0  0  0  0  0
    9.3422   22.3278   22.3657 C   0  0  0  0  0  0  0  0  0  0  0  0
    8.9422   23.3278   24.4657 N   0  0  0  0  0  0  0  0  0  0  0  0
  2  1  1  0
  3  1  1  0
  4  3  2  0
  5  4  1  0
  6  5  2  0
  7  4  1  0
  8  1  2  0
  9  7  1  0
  9  8  1  0
 10  5  1  0
 11  8  1  0
 12  6  1  0
 13  9  1  0
 14 12  2  0
 15 10  2  0
 15 14  1  0
 16 13  1  0
 17 13  1  0
 18 17  1  0
 19  3  1  0
 20  2  1  0
 20 19  1  0
 21 19  2  0
 22 18  1  0
 23 22  1  0
 24 11  1  0
 25 24  2  0
 26 16  1  0
 26 24  1  0
M  END
>  <ID>  (1) 
conformer_0

$$$$
