
     RDKit          3D

 24 27  0  0  0  0  0  0  0  0999 V2000
    6.1422   25.4278   23.5657 C   0  0  0  0  0  0  0  0  0  0  0  0
    6.4422   26.0278   22.2657 C   0  0  0  0  0  0  0  0  0  0  0  0
    5.3422   26.2278   24.4657 C   0  0  0  0  0  0  0  0  0  0  0  0
    5.3422   26.2278   25.8657 C   0  0  0  0  0  0  0  0  0  0  0  0
    4.4422   27.0278   26.5657 C   0  0  0  0  0  0  0  0  0  0  0  0
    6.2422   25.2278   26.4657 C   0  0  0  0  0  0  0  0  0  0  0  0
    7.2422   24.7278   24.1657 C   0  0  0  0  0  3  0  0  0  0  0  0
    7.2422   24.9278   25.5657 N   0  0  0  0  0  0  0  0  0  0  0  0
    4.8422   27.4278   23.7657 C   0  0  0  0  0  0  0  0  0  0  0  0
    8.4422   24.3278   26.1657 C   0  0  0  0  0  0  0  0  0  0  0  0
    4.6422   28.5278   24.6657 N   0  0  0  0  0  0  0  0  0  0  0  0
    4.0422   28.2278   25.9657 N   0  0  0  0  0  0  0  0  0  0  0  0
    7.8422   23.8278   23.5657 O   0  0  0  0  0  0  0  0  0  0  0  0
    9.4422   23.8278   25.1657 C   0  0  0  0  0  0  0  0  0  0  0  0
    8.9422   23.1278   24.0657 C   0  0  0  0  0  0  0  0  0  0  0  0
    9.5422   22.4278   22.9657 C   0  0  0  0  0  0  0  0  0  0  0  0
    5.7422   24.5278   27.6657 C   0  0  0  0  0  0  0  0  0  0  0  0
    6.1422   24.7278   29.0657 C   0  0  0  0  0  0  0  0  0  0  0  0
    7.1422   23.9278   29.7657 N   0  0  0  0  0  0  0  0  0  0  0  0
    7.4422   24.2278   31.0657 C   0  0  0  0  0  0  0  0  0  0  0  0
    6.6422   25.3278   31.6657 C   0  0  0  0  0  0  0  0  0  0  0  0
   10.1422   21.3278   22.9657 O   0  0  0  0  0  0  0  0  0  0  0  0
    3.5422   27.5278   23.1657 O   0  0  0  0  0  0  0  0  0  0  0  0
    5.3422   25.2278   22.3657 C   0  0  0  0  0  0  0  0  0  0  0  0
  2  1  1  0
  3  1  1  0
  4  3  2  0
  5  4  1  0
  6  4  1  0
  7  1  1  0
  8  6  1  0
  8  7  1  0
  9  3  1  0
 10  8  1  0
 11  9  1  0
 12  5  2  0
 12 11  1  0
 13  7  1  0
 14 10  1  0
 15 13  1  0
 15 14  1  0
 16 15  1  0
 17  6  1  0
 18 17  1  0
 19 18  1  0
 20 19  2  3
 21 20  1  0
 22 16  2  0
 23  9  2  0
 24  1  1  0
 24  2  2  0
M  END
>  <ID>  (1) 
conformer_0

$$$$
