
     RDKit          3D

 35 42  0  0  0  0  0  0  0  0999 V2000
    6.1422   25.4278   23.5657 C   0  0  0  0  0  0  0  0  0  0  0  0
    6.4422   26.0278   22.2657 C   0  0  0  0  0  0  0  0  0  0  0  0
    5.3422   26.2278   24.4657 C   0  0  0  0  0  3  0  0  0  0  0  0
    5.3422   26.2278   25.8657 C   0  0  0  0  0  0  0  0  0  0  0  0
    4.8422   27.1278   26.7657 C   0  0  0  0  0  0  0  0  0  0  0  0
    4.1422   26.7278   27.9657 C   0  0  0  0  0  0  0  0  0  0  0  0
    4.2422   28.2278   26.0657 C   0  0  0  0  0  0  0  0  0  0  0  0
    4.7422   28.4278   24.7657 N   0  0  0  0  0  0  0  0  0  0  0  0
    4.9422   27.5278   23.7657 C   0  0  0  0  0  0  0  0  0  0  0  0
    7.1422   24.5278   24.1657 C   0  0  0  0  0  0  0  0  0  0  0  0
    7.3422   24.7278   25.5657 N   0  0  0  0  0  0  0  0  0  0  0  0
    4.4422   26.2278   29.2657 C   0  0  0  0  0  0  0  0  0  0  0  0
    6.1422   25.0278   26.3657 C   0  0  0  0  0  0  0  0  0  0  0  0
    4.8422   25.0278   29.7657 C   0  0  0  0  0  0  0  0  0  0  0  0
    5.8422   24.3278   29.9657 N   0  0  0  0  0  0  0  0  0  0  0  0
    7.2422   24.3278   30.0657 C   0  0  0  0  0  0  0  0  0  0  0  0
    8.1422   24.1278   23.3657 C   0  0  0  0  0  0  0  0  0  0  0  0
    9.0422   23.0278   23.5657 C   0  0  0  0  0  0  0  0  0  0  0  0
    9.4422   22.2278   22.5657 C   0  0  0  0  0  0  0  0  0  0  0  0
    8.2422   24.2278   29.0657 C   0  0  0  0  0  0  0  0  0  0  0  0
    8.8422   23.0278   28.4657 C   0  0  0  0  0  0  0  0  0  0  0  0
   10.1422   23.2278   27.7657 C   0  0  0  0  0  0  0  0  0  0  0  0
   11.3422   22.4278   28.0657 C   0  0  0  0  0  0  0  0  0  0  0  0
    7.7422   23.6278   31.2657 C   0  0  0  0  0  0  0  0  0  0  0  0
   12.1422   21.5278   27.3657 O   0  0  0  0  0  0  0  0  0  0  0  0
   10.4422   24.6278   27.8657 O   0  0  0  0  0  0  0  0  0  0  0  0
    7.8422   23.9278   27.7657 N   0  0  0  0  0  0  0  0  0  0  0  0
    5.4422   24.1278   28.6657 C   0  0  0  0  0  0  0  0  0  0  0  0
    6.4422   24.6278   27.7657 C   0  0  0  0  0  0  0  0  0  0  0  0
   11.8422   24.9278   28.2657 C   0  0  0  0  0  0  0  0  0  0  0  0
   10.3422   21.3278   23.0657 O   0  0  0  0  0  0  0  0  0  0  0  0
    3.8422   29.3278   26.6657 O   0  0  0  0  0  0  0  0  0  0  0  0
    4.1422   27.2278   22.6657 N   0  0  0  0  0  0  0  0  0  0  0  0
    5.3422   25.2278   22.3657 C   0  0  0  0  0  0  0  0  0  0  0  0
    4.2422   25.9278   22.3657 N   0  0  0  0  0  0  0  0  0  0  0  0
  2  1  1  0
  3  1  1  0
  4  3  1  0
  5  4  1  0
  6  5  1  0
  7  5  1  0
  8  7  1  0
  9  3  1  0
  9  8  2  0
 10  1  1  0
 11 10  2  0
 12  6  1  0
 13  4  2  0
 13 11  1  0
 14 12  1  0
 15 14  1  0
 16 15  1  0
 17 10  1  0
 18 17  1  0
 19 18  1  0
 20 16  1  0
 21 20  1  0
 22 21  1  0
 23 22  1  0
 24 16  1  0
 25 23  1  0
 26 22  1  0
 27 20  1  0
 27 21  1  0
 28 14  1  0
 28 15  1  0
 29 13  1  0
 29 27  1  0
 29 28  1  0
 30 26  1  0
 31 19  1  0
 32  7  2  0
 33  9  1  0
 34  1  1  0
 34  2  1  0
 35 33  1  0
 35 34  1  0
M  END
>  <ID>  (1) 
conformer_0

$$$$
