
     RDKit          3D

  6  6  0  0  0  0  0  0  0  0999 V2000
    8.1330   23.7611   30.2859 C   0  0  0  0  0  0  0  0  0  0  0  0
    9.4330   23.1611   30.3859 C   0  0  0  0  0  0  0  0  0  0  0  0
    9.6330   22.1611   29.2859 C   0  0  0  0  0  0  0  0  0  0  0  0
    8.4330   21.8611   28.5859 N   0  0  0  0  0  0  0  0  0  0  0  0
    8.0330   23.1611   27.9859 C   0  0  0  0  0  0  0  0  0  0  0  0
    7.9330   24.2611   28.8859 C   0  0  0  0  0  0  0  0  0  0  0  0
  2  1  1  0
  3  2  1  0
  4  3  1  0
  5  4  1  0
  6  1  1  0
  6  5  1  0
M  END
>  <ID>  (1) 
conformer_0

$$$$
