
     RDKit          3D

 14 16  0  0  0  0  0  0  0  0999 V2000
    6.1422   25.4278   23.5657 C   0  0  0  0  0  0  0  0  0  0  0  0
    6.1422   26.0278   22.2657 C   0  0  0  0  0  0  0  0  0  0  0  0
    5.5422   26.2278   24.5657 C   0  0  0  0  0  0  0  0  0  0  0  0
    4.9422   27.4278   23.9657 C   0  0  0  0  0  0  0  0  0  0  0  0
    4.6422   28.5278   24.5657 N   0  0  0  0  0  0  0  0  0  0  0  0
    4.0422   26.9278   23.0657 N   0  0  0  0  0  0  0  0  0  0  0  0
    7.2422   24.6278   23.9657 C   0  0  0  0  0  3  0  0  0  0  0  0
    7.4422   24.9278   25.3657 N   0  0  0  0  0  0  0  0  0  0  0  0
    8.4422   24.4278   26.1657 C   0  0  0  0  0  0  0  0  0  0  0  0
    6.3422   25.8278   25.7657 C   0  0  0  0  0  0  0  0  0  0  0  0
    8.2422   23.6278   27.0657 O   0  0  0  0  0  0  0  0  0  0  0  0
    9.8422   24.7278   25.7657 C   0  0  0  0  0  0  0  0  0  0  0  0
    4.0422   25.6278   22.5657 C   0  0  0  0  0  0  0  0  0  0  0  0
    5.2422   25.1278   22.4657 C   0  0  0  0  0  0  0  0  0  0  0  0
  2  1  1  0
  3  1  1  0
  4  3  1  0
  5  4  1  0
  6  4  2  0
  7  1  1  0
  8  7  1  0
  9  8  1  0
 10  3  2  0
 10  8  1  0
 11  9  2  0
 12  9  1  0
 13  6  1  0
 14  1  1  0
 14  2  1  0
 14 13  2  0
M  END
>  <ID>  (1) 
conformer_0

$$$$
