
     RDKit          3D

 30 34  0  0  0  0  0  0  0  0999 V2000
    5.8789   25.6256   23.5837 C   0  0  0  0  0  0  0  0  0  0  0  0
    6.2789   26.1256   22.2837 C   0  0  0  0  0  0  0  0  0  0  0  0
    4.9789   26.6256   24.1837 C   0  0  0  0  0  0  0  0  0  0  0  0
    4.8789   26.8256   25.5837 C   0  0  0  0  0  0  0  0  0  0  0  0
    3.9789   27.7256   26.1837 C   0  0  0  0  0  0  0  0  0  0  0  0
    3.4789   27.4256   27.4837 C   0  0  0  0  0  0  0  0  0  0  0  0
    5.4789   25.9256   26.5837 C   0  0  0  0  0  0  0  0  0  0  0  0
    6.6789   25.0256   24.5837 C   0  0  0  0  0  0  0  0  0  0  0  0
    6.3789   25.1256   25.8837 N   0  0  0  0  0  0  0  0  0  0  0  0
    5.3789   25.8256   27.7837 N   0  0  0  0  0  0  0  0  0  0  0  0
    5.6789   24.7256   28.6837 C   0  0  0  0  0  0  0  0  0  0  0  0
    5.1789   24.8256   29.9837 C   0  0  0  0  0  0  0  0  0  0  0  0
    6.9789   24.1256   28.2837 C   0  0  0  0  0  0  0  0  0  0  0  0
    4.2789   26.7256   28.3837 C   0  0  0  0  0  0  0  0  0  0  0  0
    4.0789   27.1256   23.1837 C   0  0  0  0  0  0  0  0  0  0  0  0
    3.9789   26.5256   22.0837 N   0  0  0  0  0  0  0  0  0  0  0  0
    7.8789   23.7256   29.3837 C   0  0  0  0  0  0  0  0  0  0  0  0
    6.2789   24.9256   30.9837 C   0  0  0  0  0  0  0  0  0  0  0  0
    7.5789   24.2256   30.7837 C   0  0  0  0  0  0  0  0  0  0  0  0
    5.1789   26.2256   21.6837 N   0  0  0  0  0  0  0  0  0  0  0  0
    8.6789   22.5256   29.3837 N   0  0  0  0  0  0  0  0  0  0  0  0
   10.0789   22.3256   29.0837 C   0  0  0  0  0  0  0  0  0  0  0  0
   10.6789   21.0256   29.2837 C   0  0  0  0  0  0  0  0  0  0  0  0
    9.9789   19.9256   29.7837 O   0  0  0  0  0  0  0  0  0  0  0  0
   10.4789   23.1256   27.8837 C   0  0  0  0  0  0  0  0  0  0  0  0
   11.4789   22.3256   27.1837 O   0  0  0  0  0  0  0  0  0  0  0  0
   11.8789   21.3256   28.1837 C   0  0  0  0  0  0  0  0  0  0  0  0
   12.6789   20.1256   27.8837 C   0  0  0  0  0  0  0  0  0  0  0  0
   12.7789   19.9256   26.4837 O   0  0  0  0  0  0  0  0  0  0  0  0
    7.1789   25.4256   21.7837 O   0  0  0  0  0  0  0  0  0  0  0  0
  2  1  1  0
  3  1  1  0
  4  3  1  0
  5  4  2  0
  6  5  1  0
  7  4  1  0
  8  1  2  0
  9  7  2  0
  9  8  1  0
 10  7  1  0
 11 10  1  0
 12 11  1  0
 13 11  1  0
 14  6  2  0
 14 10  1  0
 15  3  1  0
 16 15  1  0
 17 13  1  0
 18 12  1  0
 19 17  1  0
 19 18  1  0
 20  2  1  0
 20 16  1  0
 21 17  1  0
 22 21  1  0
 23 22  1  0
 24 23  1  0
 25 22  1  0
 26 25  1  0
 27 23  1  0
 27 26  1  0
 28 27  1  0
 29 28  1  0
 30  2  2  0
M  END
>  <ID>  (1) 
conformer_0

$$$$
