
     RDKit          3D

 28 32  0  0  0  0  0  0  0  0999 V2000
    5.4719   25.5819   23.5950 C   0  0  0  0  0  0  0  0  0  0  0  0
    6.3719   25.9819   22.4950 C   0  0  0  0  0  0  0  0  0  0  0  0
    5.6719   26.1819   24.7950 C   0  0  0  0  0  0  0  0  0  0  0  0
    4.9719   26.8819   25.7950 C   0  0  0  0  0  0  0  0  0  0  0  0
    4.9719   28.2819   25.9950 C   0  0  0  0  0  0  0  0  0  0  0  0
    4.9719   26.1819   27.0950 C   0  0  0  0  0  0  0  0  0  0  0  0
    4.8719   29.0819   24.7950 N   0  0  0  0  0  0  0  0  0  0  0  0
    4.6719   28.6819   27.1950 N   0  0  0  0  0  0  0  0  0  0  0  0
    5.5719   24.9819   27.1950 N   0  0  0  0  0  0  0  0  0  0  0  0
    6.1719   24.4819   28.3950 C   0  0  0  0  0  0  0  0  0  0  0  0
    5.8719   24.8819   24.7950 C   0  0  0  0  0  0  0  0  0  0  0  0
    7.4719   23.7819   28.3950 C   0  0  0  0  0  0  0  0  0  0  0  0
    8.1719   23.9819   29.6950 C   0  0  0  0  0  0  0  0  0  0  0  0
    5.9719   25.1819   29.6950 C   0  0  0  0  0  0  0  0  0  0  0  0
    7.0719   24.3819   30.5950 C   0  0  0  0  0  0  0  0  0  0  0  0
    4.4719   29.8819   27.7950 C   0  0  0  0  0  0  0  0  0  0  0  0
    3.4719   30.8819   27.7950 C   0  0  0  0  0  0  0  0  0  0  0  0
    3.7719   32.0819   27.1950 C   0  0  0  0  0  0  0  0  0  0  0  0
    5.0719   32.1819   26.7950 C   0  0  0  0  0  0  0  0  0  0  0  0
    5.5719   33.2819   26.0950 N   0  0  0  0  0  0  0  0  0  0  0  0
    6.1719   31.3819   27.3950 C   0  0  0  0  0  0  0  0  0  0  0  0
    7.3719   31.9819   26.9950 N   0  0  0  0  0  0  0  0  0  0  0  0
    8.6719   31.3819   26.7950 C   0  0  0  0  0  0  0  0  0  0  0  0
    6.9719   33.1819   26.4950 N   0  0  0  0  0  0  0  0  0  0  0  0
    6.3719   24.7819   26.0950 N   0  0  0  0  0  0  0  0  0  0  0  0
    5.6719   30.5819   28.4950 C   0  0  0  0  0  0  0  0  0  0  0  0
    7.6719   26.0819   23.0950 C   0  0  0  0  0  0  0  0  0  0  0  0
    8.8719   25.9819   22.8950 F   0  0  0  0  0  0  0  0  0  0  0  0
  2  1  1  0
  3  1  1  0
  4  3  2  0
  5  4  1  0
  6  4  1  0
  7  5  2  0
  8  5  1  0
  9  6  1  0
 10  9  1  0
 11  1  1  0
 11  3  1  0
 12 10  1  0
 13 12  1  0
 14 10  1  0
 15 13  1  0
 15 14  1  0
 16  8  1  0
 17 16  2  0
 18 17  1  0
 19 18  2  0
 20 19  1  0
 21 19  1  0
 22 21  1  0
 23 22  1  0
 24 20  2  0
 24 22  1  0
 25  9  1  0
 25 11  2  0
 26 16  1  0
 26 21  2  0
 27  2  1  0
 28 27  1  0
M  END
>  <ID>  (1) 
conformer_0

$$$$
