
     RDKit          3D

 35 41  0  0  0  0  0  0  0  0999 V2000
    6.1422   25.4278   23.5657 C   0  0  0  0  0  0  0  0  0  0  0  0
    6.4422   26.0278   22.2657 C   0  0  0  0  0  0  0  0  0  0  0  0
    5.3422   26.2278   24.4657 C   0  0  0  0  0  0  0  0  0  0  0  0
    5.3422   26.2278   25.8657 C   0  0  0  0  0  0  0  0  0  0  0  0
    4.8422   27.1278   26.7657 C   0  0  0  0  0  0  0  0  0  0  0  0
    4.1422   26.7278   27.9657 C   0  0  0  0  0  0  0  0  0  0  0  0
    4.2422   28.2278   26.0657 C   0  0  0  0  0  0  0  0  0  0  0  0
    4.7422   28.4278   24.7657 N   0  0  0  0  0  0  0  0  0  0  0  0
    4.9422   27.5278   23.7657 C   0  0  0  0  0  0  0  0  0  0  0  0
    7.1422   24.5278   24.1657 C   0  0  0  0  0  3  0  0  0  0  0  0
    7.3422   24.7278   25.5657 N   0  0  0  0  0  0  0  0  0  0  0  0
    4.4422   26.2278   29.2657 C   0  0  0  0  0  0  0  0  0  0  0  0
    6.1422   25.0278   26.3657 C   0  0  0  0  0  0  0  0  0  0  0  0
    4.8422   25.0278   29.7657 C   0  0  0  0  0  0  0  0  0  0  0  0
    5.8422   24.3278   29.9657 N   0  0  0  0  0  0  0  0  0  0  0  0
    7.2422   24.3278   30.0657 C   0  0  0  0  0  0  0  0  0  0  0  0
    8.1422   24.1278   23.3657 C   0  0  0  0  0  0  0  0  0  0  0  0
    9.0422   23.1278   23.9657 C   0  0  0  0  0  0  0  0  0  0  0  0
    7.9422   23.6278   29.0657 C   0  0  0  0  0  0  0  0  0  0  0  0
    9.0422   22.7278   29.3657 C   0  0  0  0  0  0  0  0  0  0  0  0
    5.5422   24.2278   28.6657 C   0  0  0  0  0  0  0  0  0  0  0  0
    7.8422   23.9278   31.3657 C   0  0  0  0  0  0  0  0  0  0  0  0
    8.8422   21.3278   29.0657 N   0  0  0  0  0  0  0  0  0  0  0  0
    9.4422   22.2278   22.8657 C   0  0  0  0  0  0  0  0  0  0  0  0
    7.6422   23.9278   27.7657 O   0  0  0  0  0  0  0  0  0  0  0  0
    6.4422   24.8278   27.7657 C   0  0  0  0  0  0  0  0  0  0  0  0
    9.6422   23.5278   25.0657 N   0  0  0  0  0  0  0  0  0  0  0  0
    9.6422   24.6278   25.7657 C   0  0  0  0  0  0  0  0  0  0  0  0
   10.6422   24.8278   26.8657 C   0  0  0  0  0  0  0  0  0  0  0  0
    4.3422   27.0278   22.5657 N   0  0  0  0  0  0  0  0  0  0  0  0
    4.0422   25.7278   22.4657 C   0  0  0  0  0  0  0  0  0  0  0  0
    5.4422   25.2278   22.4657 C   0  0  0  0  0  0  0  0  0  0  0  0
    9.7422   25.1278   26.6657 N   0  0  0  0  0  0  0  0  0  0  0  0
    9.3422   20.6278   30.2657 C   0  0  0  0  0  0  0  0  0  0  0  0
    5.3422   29.1278   25.6657 N   0  0  0  0  0  0  0  0  0  0  0  0
  2  1  1  0
  3  1  1  0
  4  3  2  0
  5  4  1  0
  6  5  1  0
  7  5  2  0
  8  7  1  0
  9  3  1  0
  9  8  1  0
 10  1  1  0
 11 10  1  0
 12  6  1  0
 13  4  1  0
 13 11  2  0
 14 12  1  0
 15 14  1  0
 16 15  1  0
 17 10  1  0
 18 17  1  0
 19 16  1  0
 20 19  1  0
 21 14  1  0
 21 15  1  0
 22 16  1  0
 23 20  1  0
 24 18  1  0
 25 19  1  0
 26 13  1  0
 26 21  1  0
 26 25  1  0
 27 18  1  0
 28 27  1  0
 30  9  2  0
 31 30  1  0
 32  1  1  0
 32  2  1  0
 32 31  2  0
 33 28  1  0
 33 29  1  0
 34 23  1  0
 35  7  1  0
M  END
>  <ID>  (1) 
conformer_0

$$$$
