
     RDKit          3D

 36 43  0  0  0  0  0  0  0  0999 V2000
    6.1422   25.4278   23.5657 C   0  0  0  0  0  0  0  0  0  0  0  0
    6.4422   26.0278   22.2657 C   0  0  0  0  0  0  0  0  0  0  0  0
    5.3422   26.2278   24.4657 C   0  0  0  0  0  0  0  0  0  0  0  0
    5.3422   26.2278   25.8657 C   0  0  0  0  0  0  0  0  0  0  0  0
    4.8422   27.1278   26.7657 C   0  0  0  0  0  0  0  0  0  0  0  0
    4.1422   26.7278   27.9657 C   0  0  0  0  0  0  0  0  0  0  0  0
    4.2422   28.2278   26.0657 C   0  0  0  0  0  0  0  0  0  0  0  0
    4.7422   28.4278   24.7657 N   0  0  0  0  0  0  0  0  0  0  0  0
    4.9422   27.5278   23.7657 C   0  0  0  0  0  0  0  0  0  0  0  0
    7.1422   24.5278   24.1657 C   0  0  0  0  0  0  0  0  0  0  0  0
    7.3422   24.7278   25.5657 N   0  0  0  0  0  0  0  0  0  0  0  0
    4.4422   26.2278   29.2657 C   0  0  0  0  0  0  0  0  0  0  0  0
    6.1422   25.0278   26.3657 C   0  0  0  0  0  0  0  0  0  0  0  0
    4.8422   25.0278   29.7657 C   0  0  0  0  0  0  0  0  0  0  0  0
    5.8422   24.3278   29.9657 N   0  0  0  0  0  0  0  0  0  0  0  0
    7.2422   24.3278   30.0657 C   0  0  0  0  0  0  0  0  0  0  0  0
    8.1422   24.1278   23.3657 C   0  0  0  0  0  0  0  0  0  0  0  0
    9.0422   23.0278   23.5657 C   0  0  0  0  0  0  0  0  0  0  0  0
    9.4422   22.2278   22.5657 C   0  0  0  0  0  0  0  0  0  0  0  0
    8.2422   24.2278   29.0657 C   0  0  0  0  0  0  0  0  0  0  0  0
    8.6422   23.0278   28.2657 C   0  0  0  0  0  0  0  0  0  0  0  0
    9.0422   23.3278   26.9657 N   0  0  0  0  0  0  0  0  0  0  0  0
    9.4422   23.8278   25.8657 C   0  0  0  0  0  0  0  0  0  0  0  0
    9.5422   23.2278   24.7657 N   0  0  0  0  0  0  0  0  0  0  0  0
    7.7422   23.9278   31.3657 C   0  0  0  0  0  0  0  0  0  0  0  0
    5.3422   24.9278   31.1657 C   0  0  0  0  0  0  0  0  0  0  0  0
    9.7422   22.2278   28.8657 C   0  0  0  0  0  0  0  0  0  0  0  0
   10.4422   23.6278   26.9657 C   0  0  0  0  0  0  0  0  0  0  0  0
    6.9422   23.7278   32.4657 C   0  0  0  0  0  0  0  0  0  0  0  0
    5.7422   24.4278   32.2657 N   0  0  0  0  0  0  0  0  0  0  0  0
   11.0422   23.0278   28.1657 C   0  0  0  0  0  0  0  0  0  0  0  0
    3.5422   27.7278   23.2657 O   0  0  0  0  0  0  0  0  0  0  0  0
    6.3422   26.1278   21.0657 N   0  0  0  0  0  0  0  0  0  0  0  0
    5.2422   26.3278   21.6657 N   0  0  0  0  0  0  0  0  0  0  0  0
   10.6422   23.3278   29.4657 O   0  0  0  0  0  0  0  0  0  0  0  0
   12.1422   22.0278   27.9657 C   0  0  0  0  0  0  0  0  0  0  0  0
  2  1  1  0
  3  1  1  0
  4  3  2  0
  5  4  1  0
  6  5  1  0
  7  5  1  0
  8  7  1  0
  9  3  1  0
  9  8  1  0
 10  1  2  0
 11 10  1  0
 12  6  1  0
 13  4  1  0
 13 11  2  0
 14 12  1  0
 15 14  1  0
 16 15  1  0
 17 10  1  0
 18 17  1  0
 19 18  2  0
 20 16  1  0
 21 20  1  0
 22 21  1  0
 23 22  1  0
 24 18  1  0
 24 23  1  0
 25 16  1  0
 26 14  1  0
 26 15  1  0
 27 21  1  0
 28 22  1  0
 28 23  1  0
 29 25  2  0
 30 26  2  0
 30 29  1  0
 31 27  1  0
 31 28  1  0
 32  9  2  0
 33  2  2  0
 34  2  1  0
 35 27  1  0
 35 31  1  0
 36 31  1  0
M  END
>  <ID>  (1) 
conformer_0

$$$$
