
     RDKit          3D

 32 38  0  0  0  0  0  0  0  0999 V2000
    5.4719   25.5819   23.5950 C   0  0  0  0  0  0  0  0  0  0  0  0
    6.3719   25.9819   22.4950 C   0  0  0  0  0  0  0  0  0  0  0  0
    5.6719   26.1819   24.7950 C   0  0  0  0  0  0  0  0  0  0  0  0
    4.9719   26.8819   25.7950 C   0  0  0  0  0  0  0  0  0  0  0  0
    4.6719   28.1819   25.9950 C   0  0  0  0  0  0  0  0  0  0  0  0
    5.0719   26.1819   27.0950 C   0  0  0  0  0  0  0  0  0  0  0  0
    5.9719   25.0819   27.0950 N   0  0  0  0  0  0  0  0  0  0  0  0
    6.0719   24.5819   28.4950 C   0  0  0  0  0  0  0  0  0  0  0  0
    5.6719   24.8819   24.7950 C   0  0  0  0  0  0  0  0  0  0  0  0
    4.8719   29.0819   24.8950 N   0  0  0  0  0  0  0  0  0  0  0  0
    5.2719   25.4819   29.2950 C   0  0  0  0  0  0  0  0  0  0  0  0
    4.3719   26.3819   28.2950 C   0  0  0  0  0  0  0  0  0  0  0  0
    7.3719   23.9819   28.8950 C   0  0  0  0  0  0  0  0  0  0  0  0
    7.4719   24.2819   30.2950 C   0  0  0  0  0  0  0  0  0  0  0  0
    8.5719   23.4819   30.8950 C   0  0  0  0  0  0  0  0  0  0  0  0
    8.6719   22.2819   30.0950 N   0  0  0  0  0  0  0  0  0  0  0  0
    9.0719   22.3819   28.7950 C   0  0  0  0  0  0  0  0  0  0  0  0
   10.4719   22.6819   28.5950 C   0  0  0  0  0  0  0  0  0  0  0  0
   11.1719   21.3819   28.5950 O   0  0  0  0  0  0  0  0  0  0  0  0
    8.1719   24.2819   27.6950 O   0  0  0  0  0  0  0  0  0  0  0  0
    9.4719   24.2819   27.0950 C   0  0  0  0  0  0  0  0  0  0  0  0
   10.5719   23.4819   27.2950 C   0  0  0  0  0  0  0  0  0  0  0  0
   11.7719   24.1819   27.3950 O   0  0  0  0  0  0  0  0  0  0  0  0
    7.6719   25.8819   22.9950 N   0  0  0  0  0  0  0  0  0  0  0  0
    7.9719   25.1819   24.0950 C   0  0  0  0  0  0  0  0  0  0  0  0
    3.7719   28.4819   26.7950 N   0  0  0  0  0  0  0  0  0  0  0  0
    9.1719   24.9819   24.6950 O   0  0  0  0  0  0  0  0  0  0  0  0
    9.5719   25.3819   25.9950 C   0  0  0  0  0  0  0  0  0  0  0  0
    3.4719   29.8819   27.0950 C   0  0  0  0  0  0  0  0  0  0  0  0
    7.0719   24.2819   24.5950 N   0  0  0  0  0  2  0  0  0  0  0  0
    5.4719   27.0819   27.8950 N   0  0  0  0  0  0  0  0  0  0  0  0
    5.1719   23.8819   27.4950 C   0  0  0  0  0  0  0  0  0  0  0  0
  2  1  1  0
  3  1  1  0
  4  3  1  0
  5  4  1  0
  6  4  1  0
  7  6  1  0
  8  7  1  0
  9  1  1  0
  9  3  1  0
 10  5  2  0
 11  8  1  0
 12  6  1  0
 12 11  1  0
 13  8  1  0
 14 13  1  0
 15 14  1  0
 16 15  1  0
 17 16  1  0
 18 17  1  0
 19 18  1  0
 20 13  1  0
 21 20  1  0
 22 18  1  0
 22 21  1  0
 23 22  1  0
 24  2  1  0
 25 24  2  0
 26  5  1  0
 27 25  1  0
 28 21  1  0
 28 27  1  0
 29 26  1  0
 30  9  1  0
 30 25  1  0
 31  6  1  0
 31 12  1  0
 32  7  1  0
 32  8  1  0
M  END
>  <ID>  (1) 
conformer_0

$$$$
