
     RDKit          3D

 12 12  0  0  0  0  0  0  0  0999 V2000
    6.2690   25.7819   22.8855 C   0  0  0  0  0  0  0  0  0  0  0  0
    5.6690   25.2819   23.9855 C   0  0  0  0  0  0  0  0  0  0  0  0
    5.2690   26.1819   25.0855 C   0  0  0  0  0  0  0  0  0  0  0  0
    5.5690   27.5819   24.6855 C   0  0  0  0  0  0  0  0  0  0  0  0
    4.8690   28.7819   24.6855 N   0  0  0  0  0  0  0  0  0  0  0  0
    5.5690   25.7819   26.3855 C   0  0  0  0  0  0  0  0  0  0  0  0
    5.0690   25.9819   27.6855 C   0  0  0  0  0  0  0  0  0  0  0  0
    5.3690   25.2819   28.8855 C   0  0  0  0  0  0  0  0  0  0  0  0
    5.3690   25.8819   30.1855 C   0  0  0  0  0  0  0  0  0  0  0  0
    5.3690   24.9819   31.2855 C   0  0  0  0  0  0  0  0  0  0  0  0
    6.8690   27.8819   24.9855 O   0  0  0  0  0  0  0  0  0  0  0  0
    4.8690   25.8819   22.7855 C   0  0  0  0  0  0  0  0  0  0  0  0
  2  1  1  0
  3  2  1  0
  4  3  1  0
  5  4  1  0
  6  3  1  0
  7  6  2  3
  8  7  1  0
  9  8  2  3
 10  9  1  0
 11  4  2  0
 12  1  1  0
 12  2  1  0
M  END
>  <ID>  (1) 
conformer_0

$$$$
