
     RDKit          3D

 28 33  0  0  0  0  0  0  0  0999 V2000
    6.1422   25.4278   23.5657 C   0  0  0  0  0  0  0  0  0  0  0  0
    6.4422   26.0278   22.2657 C   0  0  0  0  0  0  0  0  0  0  0  0
    5.3422   26.2278   24.4657 C   0  0  0  0  0  3  0  0  0  0  0  0
    5.3422   26.2278   25.8657 C   0  0  0  0  0  0  0  0  0  0  0  0
    4.8422   27.1278   26.7657 C   0  0  0  0  0  0  0  0  0  0  0  0
    4.1422   26.7278   27.9657 C   0  0  0  0  0  0  0  0  0  0  0  0
    4.2422   28.2278   26.0657 C   0  0  0  0  0  0  0  0  0  0  0  0
    4.7422   28.4278   24.7657 N   0  0  0  0  0  0  0  0  0  0  0  0
    4.9422   27.5278   23.7657 C   0  0  0  0  0  0  0  0  0  0  0  0
    7.1422   24.5278   24.1657 C   0  0  0  0  0  0  0  0  0  0  0  0
    7.3422   24.9278   25.4657 N   0  0  0  0  0  0  0  0  0  0  0  0
    6.0422   25.0278   26.3657 C   0  0  0  0  0  0  0  0  0  0  0  0
    8.3422   24.5278   26.3657 C   0  0  0  0  0  0  0  0  0  0  0  0
    4.3422   26.5278   29.2657 C   0  0  0  0  0  0  0  0  0  0  0  0
    8.2422   24.3278   23.3657 N   0  0  0  0  0  0  0  0  0  0  0  0
    9.4422   23.9278   25.5657 C   0  0  0  0  0  0  0  0  0  0  0  0
    9.1422   23.6278   24.1657 C   0  0  0  0  0  0  0  0  0  0  0  0
    5.0422   25.4278   29.8657 C   0  0  0  0  0  0  0  0  0  0  0  0
    5.7422   24.5278   28.9657 C   0  0  0  0  0  0  0  0  0  0  0  0
    6.7422   23.8278   29.6657 N   0  0  0  0  0  0  0  0  0  0  0  0
    5.9422   25.1278   27.7657 N   0  0  0  0  0  0  0  0  0  0  0  0
    9.8422   22.4278   23.6657 N   0  0  0  0  0  0  0  0  0  0  0  0
    9.4422   22.2278   22.3657 C   0  0  0  0  0  0  0  0  0  0  0  0
    4.3422   27.2278   22.5657 N   0  0  0  0  0  0  0  0  0  0  0  0
    4.0422   25.8278   22.3657 C   0  0  0  0  0  0  0  0  0  0  0  0
    5.3422   25.1278   22.2657 C   0  0  0  0  0  0  0  0  0  0  0  0
    8.4422   22.4278   21.5657 C   0  0  0  0  0  0  0  0  0  0  0  0
    7.9422   23.4278   28.8657 C   0  0  0  0  0  0  0  0  0  0  0  0
  2  1  1  0
  3  1  1  0
  4  3  1  0
  5  4  1  0
  6  5  1  0
  7  5  1  0
  8  7  1  0
  9  3  1  0
  9  8  2  0
 10  1  1  0
 11 10  1  0
 12  4  2  0
 12 11  1  0
 13 11  1  0
 14  6  1  0
 15 10  1  0
 16 13  1  0
 17 15  2  0
 17 16  1  0
 18 14  2  0
 19 18  1  0
 20 19  1  0
 21 12  1  0
 21 19  2  0
 22 17  1  0
 23 22  1  0
 24  9  1  0
 25 24  1  0
 26  1  1  0
 26  2  1  0
 26 25  1  0
 27 23  2  0
 28 20  1  0
M  END
>  <ID>  (1) 
conformer_0

$$$$
