
     RDKit          3D

 35 41  0  0  0  0  0  0  0  0999 V2000
    6.1422   25.4278   23.5657 C   0  0  0  0  0  0  0  0  0  0  0  0
    6.4422   26.0278   22.2657 C   0  0  0  0  0  0  0  0  0  0  0  0
    5.3422   26.2278   24.4657 C   0  0  0  0  0  3  0  0  0  0  0  0
    5.3422   26.2278   25.8657 C   0  0  0  0  0  0  0  0  0  0  0  0
    4.8422   27.1278   26.7657 C   0  0  0  0  0  0  0  0  0  0  0  0
    4.1422   26.7278   27.9657 C   0  0  0  0  0  0  0  0  0  0  0  0
    4.2422   28.2278   26.0657 C   0  0  0  0  0  0  0  0  0  0  0  0
    4.7422   28.4278   24.7657 N   0  0  0  0  0  0  0  0  0  0  0  0
    4.9422   27.5278   23.7657 C   0  0  0  0  0  0  0  0  0  0  0  0
    7.1422   24.5278   24.1657 C   0  0  0  0  0  0  0  0  0  0  0  0
    7.3422   24.7278   25.5657 N   0  0  0  0  0  0  0  0  0  0  0  0
    4.4422   26.2278   29.2657 C   0  0  0  0  0  0  0  0  0  0  0  0
    6.1422   25.0278   26.3657 C   0  0  0  0  0  0  0  0  0  0  0  0
    5.2422   25.3278   29.9657 C   0  0  0  0  0  0  0  0  0  0  0  0
    5.7422   24.1278   29.9657 N   0  0  0  0  0  0  0  0  0  0  0  0
    8.0422   23.9278   23.2657 C   0  0  0  0  0  0  0  0  0  0  0  0
    9.0422   23.0278   23.8657 C   0  0  0  0  0  0  0  0  0  0  0  0
    7.1422   23.8278   29.6657 N   0  0  0  0  0  0  0  0  0  0  0  0
    9.4422   22.2278   22.7657 C   0  0  0  0  0  0  0  0  0  0  0  0
    8.2422   23.6278   30.3657 C   0  0  0  0  0  0  0  0  0  0  0  0
    9.6422   23.3278   24.9657 N   0  0  0  0  0  0  0  0  0  0  0  0
    9.7422   24.4278   25.6657 C   0  0  0  0  0  0  0  0  0  0  0  0
   10.5422   24.7278   26.8657 C   0  0  0  0  0  0  0  0  0  0  0  0
    9.2422   22.8278   29.6657 C   0  0  0  0  0  0  0  0  0  0  0  0
    8.6422   22.3278   28.4657 C   0  0  0  0  0  0  0  0  0  0  0  0
    8.9422   23.0278   27.3657 N   0  0  0  0  0  0  0  0  0  0  0  0
    3.7422   29.2278   26.5657 O   0  0  0  0  0  0  0  0  0  0  0  0
    9.3422   24.1278   27.0657 N   0  0  0  0  0  4  0  0  0  0  0  0
   10.6422   26.1278   27.0657 C   0  0  0  0  0  0  0  0  0  0  0  0
    4.3422   27.3278   22.6657 N   0  0  0  0  0  0  0  0  0  0  0  0
    5.4422   25.2278   22.3657 C   0  0  0  0  0  0  0  0  0  0  0  0
    4.6422   26.1278   21.8657 N   0  0  0  0  0  0  0  0  0  0  0  0
    8.2422   24.3278   27.5657 C   0  0  0  0  0  0  0  0  0  0  0  0
    7.7422   24.4278   28.9657 C   0  0  0  0  0  0  0  0  0  0  0  0
    8.0422   21.0278   28.5657 O   0  0  0  0  0  0  0  0  0  0  0  0
  2  1  1  0
  3  1  1  0
  4  3  1  0
  5  4  1  0
  6  5  1  0
  7  5  1  0
  8  7  1  0
  9  3  1  0
  9  8  2  0
 10  1  1  0
 11 10  2  0
 12  6  1  0
 13  4  2  0
 13 11  1  0
 14 12  1  0
 15 14  1  0
 16 10  1  0
 17 16  1  0
 18 15  1  0
 19 17  1  0
 20 18  1  0
 21 17  1  0
 22 21  1  0
 23 22  1  0
 24 20  2  0
 25 24  1  0
 26 25  1  0
 27  7  2  0
 28 22  1  0
 28 23  1  0
 29 23  1  0
 30  9  1  0
 31  1  1  0
 31  2  1  0
 32 30  2  0
 32 31  1  0
 33 26  1  0
 33 28  1  0
 34 18  1  0
 34 33  1  0
 35 25  2  0
M  END
>  <ID>  (1) 
conformer_0

$$$$
