
     RDKit          3D

 25 27  0  0  0  0  0  0  0  0999 V2000
    5.8789   25.6256   23.5837 C   0  0  0  0  0  0  0  0  0  0  0  0
    6.2789   26.1256   22.2837 C   0  0  0  0  0  0  0  0  0  0  0  0
    4.9789   26.6256   24.1837 C   0  0  0  0  0  0  0  0  0  0  0  0
    4.8789   26.8256   25.5837 C   0  0  0  0  0  0  0  0  0  0  0  0
    3.9789   27.7256   26.1837 C   0  0  0  0  0  0  0  0  0  0  0  0
    3.4789   27.4256   27.4837 C   0  0  0  0  0  0  0  0  0  0  0  0
    5.4789   25.9256   26.5837 C   0  0  0  0  0  0  0  0  0  0  0  0
    6.6789   25.0256   24.5837 C   0  0  0  0  0  0  0  0  0  0  0  0
    6.3789   25.1256   25.8837 N   0  0  0  0  0  0  0  0  0  0  0  0
    5.3789   25.8256   27.7837 N   0  0  0  0  0  0  0  0  0  0  0  0
    5.6789   24.7256   28.6837 C   0  0  0  0  0  0  0  0  0  0  0  0
    4.9789   24.9256   29.9837 C   0  0  0  0  0  0  0  0  0  0  0  0
    4.2789   26.6256   28.3837 C   0  0  0  0  0  0  0  0  0  0  0  0
    5.9789   23.5256   28.0837 O   0  0  0  0  0  0  0  0  0  0  0  0
    4.6789   27.8256   23.3837 C   0  0  0  0  0  0  0  0  0  0  0  0
    4.7789   28.9256   24.2837 N   0  0  0  0  0  0  0  0  0  0  0  0
    4.9789   26.2256   30.5837 O   0  0  0  0  0  0  0  0  0  0  0  0
    7.6789   24.1256   24.1837 N   0  0  0  0  0  0  0  0  0  0  0  0
    8.7789   23.6256   24.7837 C   0  0  0  0  0  0  0  0  0  0  0  0
    9.4789   24.4256   25.7837 C   0  0  0  0  0  0  0  0  0  0  0  0
    3.9789   28.8256   25.3837 N   0  0  0  0  0  0  0  0  0  0  0  0
    9.5789   22.8256   23.9837 O   0  0  0  0  0  0  0  0  0  0  0  0
    9.3789   22.3256   22.6837 C   0  0  0  0  0  0  0  0  0  0  0  0
    7.3789   23.4256   28.3837 C   0  0  0  0  0  0  0  0  0  0  0  0
    6.6789   25.9256   21.1837 N   0  0  0  0  0  0  0  0  0  0  0  0
  2  1  1  0
  3  1  1  0
  4  3  1  0
  5  4  1  0
  6  5  1  0
  7  4  2  0
  8  1  1  0
  9  7  1  0
  9  8  2  0
 10  7  1  0
 11 10  1  0
 12 11  1  0
 13  6  2  0
 13 10  1  0
 14 11  1  0
 15  3  1  0
 16 15  2  0
 17 12  1  0
 18  8  1  0
 19 18  1  0
 20 19  1  0
 21  5  2  0
 21 16  1  0
 22 19  1  0
 23 22  1  0
 24 14  1  0
 25  2  2  0
M  END
>  <ID>  (1) 
conformer_0

$$$$
