
     RDKit          3D

 32 36  0  0  0  0  0  0  0  0999 V2000
    6.1422   25.4278   23.5657 C   0  0  0  0  0  0  0  0  0  0  0  0
    6.4422   26.0278   22.2657 C   0  0  0  0  0  0  0  0  0  0  0  0
    5.3422   26.2278   24.4657 C   0  0  0  0  0  3  0  0  0  0  0  0
    5.3422   26.2278   25.8657 C   0  0  0  0  0  0  0  0  0  0  0  0
    4.8422   27.1278   26.7657 C   0  0  0  0  0  0  0  0  0  0  0  0
    4.1422   26.7278   27.9657 C   0  0  0  0  0  0  0  0  0  0  0  0
    4.2422   28.2278   26.0657 C   0  0  0  0  0  0  0  0  0  0  0  0
    4.7422   28.4278   24.7657 N   0  0  0  0  0  0  0  0  0  0  0  0
    4.9422   27.5278   23.7657 C   0  0  0  0  0  0  0  0  0  0  0  0
    7.1422   24.5278   24.1657 C   0  0  0  0  0  0  0  0  0  0  0  0
    7.4422   24.6278   25.5657 N   0  0  0  0  0  0  0  0  0  0  0  0
    8.1422   24.1278   23.2657 C   0  0  0  0  0  0  0  0  0  0  0  0
    8.9422   23.0278   23.6657 C   0  0  0  0  0  0  0  0  0  0  0  0
    9.4422   22.3278   22.5657 C   0  0  0  0  0  0  0  0  0  0  0  0
    4.2422   26.7278   29.2657 C   0  0  0  0  0  0  0  0  0  0  0  0
    6.5422   25.4278   26.3657 C   0  0  0  0  0  0  0  0  0  0  0  0
    4.6422   25.7278   30.1657 C   0  0  0  0  0  0  0  0  0  0  0  0
    5.5422   25.6278   31.0657 C   0  0  0  0  0  0  0  0  0  0  0  0
    6.6422   24.9278   31.2657 C   0  0  0  0  0  0  0  0  0  0  0  0
    9.5422   23.1278   24.9657 N   0  0  0  0  0  0  0  0  0  0  0  0
    8.7422   23.9278   25.6657 C   0  0  0  0  0  0  0  0  0  0  0  0
    6.9422   23.9278   30.2657 N   0  0  0  0  0  0  0  0  0  0  0  0
    8.3422   23.6278   29.8657 C   0  0  0  0  0  0  0  0  0  0  0  0
    8.4422   23.0278   28.5657 C   0  0  0  0  0  0  0  0  0  0  0  0
    9.7422   23.0278   27.8657 C   0  0  0  0  0  0  0  0  0  0  0  0
   10.9422   22.3278   28.3657 C   0  0  0  0  0  0  0  0  0  0  0  0
   11.9422   22.0278   27.3657 O   0  0  0  0  0  0  0  0  0  0  0  0
   10.1422   24.4278   27.5657 O   0  0  0  0  0  0  0  0  0  0  0  0
    7.5422   24.0278   22.0657 O   0  0  0  0  0  0  0  0  0  0  0  0
    3.7422   27.6278   22.9657 O   0  0  0  0  0  0  0  0  0  0  0  0
    5.4422   25.2278   22.2657 C   0  0  0  0  0  0  0  0  0  0  0  0
    9.9422   24.4278   25.3657 C   0  0  0  0  0  0  0  0  0  0  0  0
  2  1  1  0
  3  1  1  0
  4  3  1  0
  5  4  1  0
  6  5  1  0
  7  5  1  0
  8  7  1  0
  9  3  1  0
  9  8  1  0
 10  1  1  0
 11 10  1  0
 12 10  2  0
 13 12  1  0
 14 13  1  0
 15  6  1  0
 16  4  2  0
 16 11  1  0
 17 15  1  0
 18 17  1  0
 19 18  2  3
 20 13  1  0
 21 11  1  0
 21 20  1  0
 22 19  1  0
 23 22  1  0
 24 23  1  0
 25 24  1  0
 26 25  1  0
 27 26  1  0
 28 25  1  0
 29 12  1  0
 30  9  2  0
 31  1  1  0
 31  2  2  0
 32 20  1  0
 32 21  1  0
M  END
>  <ID>  (1) 
conformer_0

$$$$
