
     RDKit          3D

 20 24  0  0  0  0  0  0  0  0999 V2000
    6.1422   25.4278   23.5657 C   0  0  0  0  0  0  0  0  0  0  0  0
    6.1422   26.0278   22.2657 C   0  0  0  0  0  0  0  0  0  0  0  0
    5.5422   26.2278   24.5657 C   0  0  0  0  0  3  0  0  0  0  0  0
    4.9422   27.4278   23.9657 C   0  0  0  0  0  0  0  0  0  0  0  0
    4.6422   28.5278   24.5657 N   0  0  0  0  0  0  0  0  0  0  0  0
    4.0422   26.9278   23.0657 N   0  0  0  0  0  0  0  0  0  0  0  0
    7.3422   24.6278   23.8657 C   0  0  0  0  0  0  0  0  0  0  0  0
    7.5422   25.0278   25.1657 N   0  0  0  0  0  0  0  0  0  0  0  0
    7.9422   24.1278   22.8657 O   0  0  0  0  0  0  0  0  0  0  0  0
    8.3422   24.5278   26.2657 C   0  0  0  0  0  0  0  0  0  0  0  0
    8.1422   25.5278   27.3657 C   0  0  0  0  0  0  0  0  0  0  0  0
    9.7422   24.3278   25.8657 C   0  0  0  0  0  0  0  0  0  0  0  0
   10.6422   24.7278   26.9657 C   0  0  0  0  0  0  0  0  0  0  0  0
    8.7422   25.1278   28.6657 C   0  0  0  0  0  0  0  0  0  0  0  0
   10.5422   23.6278   27.9657 C   0  0  0  0  0  0  0  0  0  0  0  0
    9.3422   23.8278   28.7657 N   0  0  0  0  0  0  0  0  0  0  0  0
    9.2422   22.8278   27.7657 C   0  0  0  0  0  0  0  0  0  0  0  0
    3.9422   25.6278   22.6657 C   0  0  0  0  0  0  0  0  0  0  0  0
    6.3422   25.6278   25.6657 C   0  0  0  0  0  0  0  0  0  0  0  0
    5.2422   25.1278   22.4657 C   0  0  0  0  0  0  0  0  0  0  0  0
  2  1  1  0
  3  1  1  0
  4  3  1  0
  5  4  1  0
  6  4  2  0
  7  1  1  0
  8  7  1  0
  9  7  2  0
 10  8  1  0
 11 10  1  0
 12 10  1  0
 13 12  1  0
 14 11  1  0
 15 13  1  0
 16 14  1  0
 16 15  1  0
 17 15  1  0
 17 16  1  0
 18  6  1  0
 19  3  1  0
 19  8  1  0
 20  1  1  0
 20  2  1  0
 20 18  2  0
M  END
>  <ID>  (1) 
conformer_0

$$$$
