
     RDKit          3D

  3  2  0  0  0  0  0  0  0  0999 V2000
    8.3667   23.3839   30.3084 C   0  0  0  0  0  0  0  0  0  0  0  0
    7.3667   24.3839   29.8084 C   0  0  0  0  0  0  0  0  0  0  0  0
    5.9667   24.1839   29.9084 N   0  0  0  0  0  0  0  0  0  0  0  0
  2  1  1  0
  3  2  1  0
M  END
>  <ID>  (1) 
conformer_0

$$$$
