
     RDKit          3D

  8  7  0  0  0  0  0  0  0  0999 V2000
    6.0124   25.7395   22.3626 C   0  0  0  0  0  0  0  0  0  0  0  0
    5.2124   25.4395   23.4626 C   0  0  0  0  0  0  0  0  0  0  0  0
    5.2124   26.1395   24.7626 C   0  0  0  0  0  0  0  0  0  0  0  0
    4.3124   27.2395   25.0626 C   0  0  0  0  0  0  0  0  0  0  0  0
    3.8124   27.6395   26.3626 C   0  0  0  0  0  0  0  0  0  0  0  0
    3.9124   29.0395   26.6626 C   0  0  0  0  0  0  0  0  0  0  0  0
    5.1124   29.5395   25.9626 C   0  0  0  0  0  0  0  0  0  0  0  0
    7.0124   24.6395   22.1626 O   0  0  0  0  0  0  0  0  0  0  0  0
  2  1  1  0
  3  2  1  0
  4  3  1  0
  5  4  1  0
  6  5  1  0
  7  6  1  0
  8  1  1  0
M  END
>  <ID>  (1) 
conformer_0

$$$$
