
     RDKit          3D

  9  8  0  0  0  0  0  0  0  0999 V2000
    6.6734   25.7332   22.1294 C   0  0  0  0  0  0  0  0  0  0  0  0
    5.6734   25.4332   23.1294 C   0  0  0  0  0  0  0  0  0  0  0  0
    4.2734   25.6332   22.6294 C   0  0  0  0  0  0  0  0  0  0  0  0
    5.7734   25.8332   24.5294 C   0  0  0  0  0  0  0  0  0  0  0  0
    4.9734   26.9332   25.1294 C   0  0  0  0  0  0  0  0  0  0  0  0
    5.1734   27.2332   26.5294 C   0  0  0  0  0  0  0  0  0  0  0  0
    4.0734   28.0332   27.1294 C   0  0  0  0  0  0  0  0  0  0  0  0
    4.4734   29.1332   28.0294 C   0  0  0  0  0  0  0  0  0  0  0  0
    3.6734   30.3332   27.8294 C   0  0  0  0  0  0  0  0  0  0  0  0
  2  1  1  0
  3  2  1  0
  4  2  1  0
  5  4  2  3
  6  5  1  0
  7  6  1  0
  8  7  1  0
  9  8  1  0
M  END
>  <ID>  (1) 
conformer_0

$$$$
