
     RDKit          3D

 15 18  0  0  0  0  0  0  0  0999 V2000
    6.2690   25.7819   22.8855 C   0  0  0  0  0  0  0  0  0  0  0  0
    5.6690   25.2819   23.9855 C   0  0  0  0  0  0  0  0  0  0  0  0
    5.2690   26.1819   25.0855 C   0  0  0  0  0  0  0  0  0  0  0  0
    5.0690   27.5819   24.7855 C   0  0  0  0  0  0  0  0  0  0  0  0
    5.4690   25.8819   26.4855 C   0  0  0  0  0  0  0  0  0  0  0  0
    4.6690   26.5819   27.4855 C   0  0  0  0  0  0  0  0  0  0  0  0
    3.8690   27.6819   26.8855 C   0  0  0  0  0  0  0  0  0  0  0  0
    4.5690   26.0819   28.7855 C   0  0  0  0  0  0  0  0  0  0  0  0
    4.8690   28.3819   25.9855 C   0  0  0  0  0  0  0  0  0  0  0  0
    6.1690   26.8819   27.1855 C   0  0  0  0  0  0  0  0  0  0  0  0
    4.8690   25.4819   22.7855 C   0  0  0  0  0  0  0  0  0  0  0  0
    5.3690   24.9819   29.1855 C   0  0  0  0  0  0  0  0  0  0  0  0
    5.9690   24.0819   28.2855 C   0  0  0  0  0  0  0  0  0  0  0  0
    5.7690   24.4819   26.8855 C   0  0  0  0  0  0  0  0  0  0  0  0
    7.2690   23.6819   28.5855 O   0  0  0  0  0  0  0  0  0  0  0  0
  2  1  1  0
  3  2  1  0
  4  3  1  0
  5  3  1  0
  6  5  1  0
  7  6  1  0
  8  6  1  0
  9  4  1  0
  9  7  1  0
 10  5  1  0
 10  6  1  0
 11  1  1  0
 11  2  1  0
 12  8  1  0
 13 12  1  0
 14  5  1  0
 14 13  1  0
 15 13  1  0
M  END
>  <ID>  (1) 
conformer_0

$$$$
