
     RDKit          3D

 25 29  0  0  0  0  0  0  0  0999 V2000
    5.8789   25.6256   23.5837 C   0  0  0  0  0  0  0  0  0  0  0  0
    6.2789   26.1256   22.2837 C   0  0  0  0  0  0  0  0  0  0  0  0
    4.9789   26.6256   24.1837 C   0  0  0  0  0  0  0  0  0  0  0  0
    4.8789   26.8256   25.5837 C   0  0  0  0  0  0  0  0  0  0  0  0
    3.9789   27.7256   26.1837 C   0  0  0  0  0  0  0  0  0  0  0  0
    3.4789   27.4256   27.4837 C   0  0  0  0  0  0  0  0  0  0  0  0
    5.4789   25.9256   26.5837 C   0  0  0  0  0  0  0  0  0  0  0  0
    6.6789   25.0256   24.5837 C   0  0  0  0  0  3  0  0  0  0  0  0
    6.3789   25.1256   25.8837 N   0  0  0  0  0  0  0  0  0  0  0  0
    5.3789   25.8256   27.7837 N   0  0  0  0  0  0  0  0  0  0  0  0
    5.6789   24.7256   28.6837 C   0  0  0  0  0  0  0  0  0  0  0  0
    4.9789   24.9256   29.9837 C   0  0  0  0  0  0  0  0  0  0  0  0
    4.2789   26.6256   28.2837 C   0  0  0  0  0  0  0  0  0  0  0  0
    4.6789   27.7256   23.3837 C   0  0  0  0  0  0  0  0  0  0  0  0
    6.8789   24.0256   28.3837 C   0  0  0  0  0  0  0  0  0  0  0  0
    8.0789   23.8256   29.1837 C   0  0  0  0  0  0  0  0  0  0  0  0
    8.7789   22.6256   28.6837 C   0  0  0  0  0  0  0  0  0  0  0  0
    9.4789   21.8256   29.6837 C   0  0  0  0  0  0  0  0  0  0  0  0
   10.2789   20.8256   29.1837 O   0  0  0  0  0  0  0  0  0  0  0  0
    9.1789   22.8256   27.3837 O   0  0  0  0  0  0  0  0  0  0  0  0
    8.8789   25.0256   29.1837 O   0  0  0  0  0  0  0  0  0  0  0  0
    4.7789   28.8256   24.2837 N   0  0  0  0  0  0  0  0  0  0  0  0
    3.7789   28.8256   25.3837 N   0  0  0  0  0  0  0  0  0  0  0  0
    5.1789   25.3256   22.3837 C   0  0  0  0  0  0  0  0  0  0  0  0
    7.0789   24.3256   26.9837 O   0  0  0  0  0  0  0  0  0  0  0  0
  2  1  1  0
  3  1  1  0
  4  3  1  0
  5  4  1  0
  6  5  1  0
  7  4  2  0
  8  1  1  0
  9  7  1  0
  9  8  1  0
 10  7  1  0
 11 10  1  0
 12 11  1  0
 13  6  2  0
 13 10  1  0
 14  3  1  0
 15 11  2  0
 16 15  1  0
 17 16  1  0
 18 17  1  0
 19 18  1  0
 20 17  1  0
 21 16  1  0
 22 14  2  0
 23  5  2  0
 23 22  1  0
 24  1  1  0
 24  2  2  0
 25  9  1  0
 25 15  1  0
M  END
>  <ID>  (1) 
conformer_0

$$$$
