
     RDKit          3D

 10 10  0  0  0  0  0  0  0  0999 V2000
  -14.4837   -5.6393  -22.4307 C   0  0  0  0  0  0  0  0  0  0  0  0
  -13.7219   -5.4309  -23.3084 C   0  0  0  0  0  0  0  0  0  0  0  0
  -12.6387   -6.3019  -23.7551 C   0  0  0  0  0  0  0  0  0  0  0  0
  -13.8223   -4.2134  -24.1399 N   0  0  0  0  0  0  0  0  0  0  0  0
  -15.3978   -4.6740  -22.0462 C   0  0  0  0  0  0  0  0  0  0  0  0
  -16.2493   -4.7991  -21.0440 O   0  0  0  0  0  0  0  0  0  0  0  0
  -15.2740   -3.3780  -22.6798 N   0  0  0  0  0  0  0  0  0  0  0  0
  -11.6388   -6.0182  -24.7148 C   0  0  0  0  0  0  0  0  0  0  0  0
  -14.5690   -3.1405  -23.6795 C   0  0  0  0  0  0  0  0  0  0  0  0
  -14.4740   -6.9164  -21.7363 O   0  0  0  0  0  0  0  0  0  0  0  0
  1  2  1  0
  2  3  2  3
  2  4  1  0
  1  5  1  0
  5  6  2  0
  5  7  1  0
  3  8  1  0
  4  9  2  0
  7  9  1  0
  1 10  1  0
M  END
>  <ID>  (1) 
conformer_0

$$$$
