
     RDKit          3D

 13 13  0  0  0  0  0  0  0  0999 V2000
  -11.4896   -6.8372  -24.8689 N   0  0  0  0  0  0  0  0  0  0  0  0
  -12.5115   -6.2716  -24.1602 C   0  0  0  0  0  0  0  0  0  0  0  0
  -12.8484   -4.9264  -24.4615 C   0  0  0  0  0  0  0  0  0  0  0  0
  -12.1585   -4.3266  -25.5811 C   0  0  0  0  0  0  0  0  0  0  0  0
  -13.1339   -6.9377  -23.0803 N   0  0  0  0  0  0  0  0  0  0  0  0
  -13.8831   -4.3877  -23.6974 C   0  0  0  0  0  0  0  0  0  0  0  0
  -14.0586   -6.3503  -22.3413 C   0  0  0  0  0  0  0  0  0  0  0  0
  -14.4551   -4.9756  -22.6479 C   0  0  0  0  0  0  0  0  0  0  0  0
  -15.5059   -4.4100  -21.8964 O   0  0  0  0  0  0  0  0  0  0  0  0
  -14.3005   -2.9506  -23.9726 C   0  0  0  0  0  0  0  0  0  0  0  0
  -15.4747   -2.6558  -24.0775 O   0  0  0  0  0  0  0  0  0  0  0  0
  -13.3166   -2.0387  -24.2562 O   0  0  0  0  0  0  0  0  0  0  0  0
  -14.6579   -6.9615  -21.3968 O   0  0  0  0  0  0  0  0  0  0  0  0
  1  2  1  0
  2  3  2  0
  3  4  1  0
  2  5  1  0
  3  6  1  0
  5  7  1  0
  6  8  2  0
  7  8  1  0
  8  9  1  0
  6 10  1  0
 10 11  2  0
 10 12  1  0
  7 13  2  0
M  END
>  <ID>  (1) 
conformer_0

$$$$
