
     RDKit          3D

 21 23  0  0  0  0  0  0  0  0999 V2000
  -14.2455   -7.2951  -21.6643 O   0  0  0  0  0  0  0  0  0  0  0  0
  -13.7363   -6.5005  -22.4665 C   0  0  0  0  0  0  0  0  0  0  0  0
  -14.4018   -5.1751  -22.4030 C   0  0  0  0  0  0  0  0  0  0  0  0
  -14.0525   -4.2406  -23.4342 N   0  0  0  0  0  0  0  0  0  0  0  0
  -13.3944   -4.5503  -24.4952 C   0  0  0  0  0  0  0  0  0  0  0  0
  -14.6099   -2.9598  -23.3533 C   0  0  0  0  0  0  0  0  0  0  0  0
  -14.1236   -2.1395  -24.3826 C   0  0  0  0  0  0  0  0  0  0  0  0
  -15.4180   -2.6685  -22.4552 O   0  0  0  0  0  0  0  0  0  0  0  0
  -14.5777   -0.9464  -24.8638 C   0  0  0  0  0  0  0  0  0  0  0  0
  -12.7368   -5.8259  -24.6315 C   0  0  0  0  0  0  0  0  0  0  0  0
  -14.0896    0.1822  -24.3313 C   0  0  0  0  0  0  0  0  0  0  0  0
  -13.3866   -3.1725  -25.1082 C   0  0  0  0  0  0  0  0  0  0  0  0
  -15.9429   -0.8293  -25.3904 C   0  0  0  0  0  0  0  0  0  0  0  0
  -11.9990   -6.1309  -25.6758 C   0  0  0  0  0  0  0  0  0  0  0  0
  -16.3378    0.5976  -25.4355 C   0  0  0  0  0  0  0  0  0  0  0  0
  -12.6999    0.0968  -23.8125 O   0  0  0  0  0  0  0  0  0  0  0  0
  -11.5338   -5.1838  -26.6078 O   0  0  0  0  0  0  0  0  0  0  0  0
  -14.5289    1.4671  -24.5832 C   0  0  0  0  0  0  0  0  0  0  0  0
  -12.9919   -6.8234  -23.6327 N   0  0  0  0  0  0  0  0  0  0  0  0
  -15.7346    1.6185  -25.1651 C   0  0  0  0  0  0  0  0  0  0  0  0
  -14.9236   -4.8136  -21.3261 O   0  0  0  0  0  0  0  0  0  0  0  0
  1  2  2  0
  2  3  1  0
  3  4  1  0
  4  5  1  0
  4  6  1  0
  6  7  1  0
  6  8  2  0
  7  9  1  0
  5 10  1  0
  9 11  1  0
  5 12  2  0
  7 12  1  0
  9 13  2  0
 10 14  2  3
 13 15  1  0
 11 16  1  0
 14 17  1  0
 11 18  2  0
  2 19  1  0
 10 19  1  0
 15 20  2  0
 18 20  1  0
  3 21  2  0
M  END
>  <ID>  (1) 
conformer_0

$$$$
