
     RDKit          3D

 14 16  0  0  0  0  0  0  0  0999 V2000
  -11.8726   -7.0819  -24.8336 N   0  0  0  0  0  0  0  0  0  0  0  0
  -12.7525   -6.3764  -24.0097 C   0  0  0  0  0  0  0  0  0  0  0  0
  -13.0621   -5.0030  -24.3193 C   0  0  0  0  0  0  0  0  0  0  0  0
  -14.0129   -4.2836  -23.5514 N   0  0  0  0  0  0  0  0  0  0  0  0
  -12.6296   -4.2854  -25.3227 C   0  0  0  0  0  0  0  0  0  0  0  0
  -11.3389   -6.2954  -25.8143 C   0  0  0  0  0  0  0  0  0  0  0  0
  -14.1576   -3.0753  -24.0743 C   0  0  0  0  0  0  0  0  0  0  0  0
  -14.7375   -4.9241  -22.4041 C   0  0  0  0  0  0  0  0  0  0  0  0
  -14.4326   -6.0642  -21.8982 N   0  0  0  0  0  0  0  0  0  0  0  0
  -11.7099   -4.9569  -26.0903 C   0  0  0  0  0  0  0  0  0  0  0  0
  -13.4216   -6.9979  -22.7308 C   0  0  0  0  0  0  0  0  0  0  0  0
  -12.9897   -3.0261  -25.3766 C   0  0  0  0  0  0  0  0  0  0  0  0
  -15.5745   -4.1698  -21.9048 O   0  0  0  0  0  0  0  0  0  0  0  0
  -13.4926   -8.1490  -22.4990 O   0  0  0  0  0  0  0  0  0  0  0  0
  1  2  1  0
  2  3  2  0
  3  4  1  0
  3  5  1  0
  1  6  2  0
  4  7  1  0
  4  8  1  0
  8  9  1  0
  5 10  2  0
  6 10  1  0
  2 11  1  0
  9 11  1  0
  5 12  1  0
  7 12  2  0
  8 13  2  0
 11 14  2  0
M  END
>  <ID>  (1) 
conformer_0

$$$$
