
     RDKit          3D

 13 14  0  0  0  0  0  0  0  0999 V2000
  -14.4837   -5.6393  -22.4307 C   0  0  0  0  0  0  0  0  0  0  0  0
  -13.7219   -5.4309  -23.3084 C   0  0  0  0  0  0  0  0  0  0  0  0
  -12.6387   -6.3019  -23.7551 C   0  0  0  0  0  0  0  0  0  0  0  0
  -13.8223   -4.2134  -24.1399 N   0  0  0  0  0  0  0  0  0  0  0  0
  -15.3978   -4.6740  -22.0462 C   0  0  0  0  0  0  0  0  0  0  0  0
  -16.2493   -4.7991  -21.0440 O   0  0  0  0  0  0  0  0  0  0  0  0
  -12.9454   -3.9501  -25.1830 C   0  0  0  0  0  0  0  0  0  0  0  0
  -15.5171   -3.4683  -22.7124 N   0  0  0  0  0  0  0  0  0  0  0  0
  -11.8938   -6.1865  -24.7459 C   0  0  0  0  0  0  0  0  0  0  0  0
  -10.9264   -6.9252  -25.1034 O   0  0  0  0  0  0  0  0  0  0  0  0
  -14.4760   -6.9252  -21.8396 O   0  0  0  0  0  0  0  0  0  0  0  0
  -14.5613   -3.2021  -23.6696 C   0  0  0  0  0  0  0  0  0  0  0  0
  -11.8979   -4.9502  -25.5377 C   0  0  0  0  0  0  0  0  0  0  0  0
  1  2  1  0
  2  3  2  0
  2  4  1  0
  1  5  1  0
  5  6  2  0
  4  7  1  0
  5  8  1  0
  3  9  1  0
  9 10  1  0
  1 11  1  0
  4 12  1  0
  8 12  2  0
  7 13  1  0
  9 13  2  0
M  END
>  <ID>  (1) 
conformer_0

$$$$
