
     RDKit          3D

 11 11  0  0  0  0  0  0  0  0999 V2000
  -14.4303   -7.1498  -21.5208 O   0  0  0  0  0  0  0  0  0  0  0  0
  -14.0541   -6.2634  -22.3826 C   0  0  0  0  0  0  0  0  0  0  0  0
  -14.6691   -4.9585  -22.3932 C   0  0  0  0  0  0  0  0  0  0  0  0
  -14.2901   -4.0095  -23.4303 C   0  0  0  0  0  0  0  0  0  0  0  0
  -13.3322   -6.6774  -23.4924 N   0  0  0  0  0  0  0  0  0  0  0  0
  -13.4170   -4.4678  -24.4447 N   0  0  0  0  0  0  0  0  0  0  0  0
  -12.8962   -5.7242  -24.4231 C   0  0  0  0  0  0  0  0  0  0  0  0
  -14.7739   -2.7283  -23.4709 C   0  0  0  0  0  0  0  0  0  0  0  0
  -11.9932   -6.0056  -25.1576 O   0  0  0  0  0  0  0  0  0  0  0  0
  -14.1711   -1.7056  -23.4555 O   0  0  0  0  0  0  0  0  0  0  0  0
  -16.1354   -2.6575  -23.2706 O   0  0  0  0  0  0  0  0  0  0  0  0
  1  2  2  0
  2  3  1  0
  3  4  2  0
  2  5  1  0
  4  6  1  0
  5  7  1  0
  6  7  1  0
  4  8  1  0
  7  9  2  0
  8 10  2  0
  8 11  1  0
M  END
>  <ID>  (1) 
conformer_0

$$$$
