
     RDKit          3D

 12 13  0  0  0  0  0  0  0  0999 V2000
  -11.6611   -6.7643  -24.3490 N   0  0  0  0  0  0  0  0  0  0  0  0
  -11.2037   -6.0067  -25.2218 C   0  0  0  0  0  0  0  0  0  0  0  0
  -12.7832   -6.1424  -23.7040 C   0  0  0  0  0  0  0  0  0  0  0  0
  -13.5761   -6.6770  -22.6571 C   0  0  0  0  0  0  0  0  0  0  0  0
  -11.8836   -4.7705  -25.2957 N   0  0  0  0  0  0  0  0  0  0  0  0
  -11.7175   -3.6391  -26.1320 C   0  0  0  0  0  0  0  0  0  0  0  0
  -14.4869   -5.9108  -22.0555 N   0  0  0  0  0  0  0  0  0  0  0  0
  -14.5833   -4.7134  -22.7003 C   0  0  0  0  0  0  0  0  0  0  0  0
  -13.8517   -4.1609  -23.7042 N   0  0  0  0  0  0  0  0  0  0  0  0
  -12.9081   -4.9060  -24.2205 C   0  0  0  0  0  0  0  0  0  0  0  0
  -15.6369   -3.7030  -22.1273 C   0  0  0  0  0  0  0  0  0  0  0  0
  -13.5713   -7.8344  -22.1502 O   0  0  0  0  0  0  0  0  0  0  0  0
  1  2  2  0
  1  3  1  0
  3  4  1  0
  2  5  1  0
  5  6  1  0
  4  7  1  0
  7  8  2  0
  8  9  1  0
  3 10  2  0
  5 10  1  0
  9 10  1  0
  8 11  1  0
  4 12  2  0
M  END
>  <ID>  (1) 
conformer_0

$$$$
