
     RDKit          3D

 15 17  0  0  0  0  0  0  0  0999 V2000
  -11.6611   -6.7643  -24.3490 N   0  0  0  0  0  0  0  0  0  0  0  0
  -11.2037   -6.0067  -25.2218 C   0  0  0  0  0  0  0  0  0  0  0  0
  -12.8000   -6.4422  -23.5759 C   0  0  0  0  0  0  0  0  0  0  0  0
  -12.0129   -4.7752  -25.2495 C   0  0  0  0  0  0  0  0  0  0  0  0
  -11.6329   -3.6940  -26.1247 N   0  0  0  0  0  0  0  0  0  0  0  0
  -13.3753   -7.2996  -22.6407 N   0  0  0  0  0  0  0  0  0  0  0  0
  -13.3870   -5.1272  -23.7552 C   0  0  0  0  0  0  0  0  0  0  0  0
  -14.4114   -6.8039  -21.9136 C   0  0  0  0  0  0  0  0  0  0  0  0
  -13.0081   -4.2877  -24.5681 C   0  0  0  0  0  0  0  0  0  0  0  0
  -14.6161   -4.8142  -22.8109 C   0  0  0  0  0  0  0  0  0  0  0  0
  -13.4303   -3.0371  -24.9336 C   0  0  0  0  0  0  0  0  0  0  0  0
  -12.5331   -2.6649  -25.9019 C   0  0  0  0  0  0  0  0  0  0  0  0
  -15.0196   -5.7116  -21.9200 N   0  0  0  0  0  0  0  0  0  0  0  0
  -10.5885   -3.5758  -27.0652 C   0  0  0  0  0  0  0  0  0  0  0  0
  -15.4002   -3.7093  -22.9418 O   0  0  0  0  0  0  0  0  0  0  0  0
  1  2  2  0
  1  3  1  0
  2  4  1  0
  4  5  1  0
  3  6  1  0
  3  7  2  0
  6  8  1  0
  4  9  2  0
  7  9  1  0
  7 10  1  0
  9 11  1  0
  5 12  1  0
 11 12  2  0
  8 13  2  0
 10 13  1  0
  5 14  1  0
 10 15  2  0
M  END
>  <ID>  (1) 
conformer_0

$$$$
