
     RDKit          3D

 13 14  0  0  0  0  0  0  0  0999 V2000
  -14.5047   -7.0180  -21.5389 O   0  0  0  0  0  0  0  0  0  0  0  0
  -14.3332   -5.9031  -22.2100 C   0  0  0  0  0  0  0  0  0  0  0  0
  -15.0224   -4.7815  -21.9189 N   0  0  0  0  0  0  0  0  0  0  0  0
  -14.6612   -3.7390  -22.8105 C   0  0  0  0  0  0  0  0  0  0  0  0
  -13.8362   -3.7154  -23.8544 N   0  0  0  0  0  0  0  0  0  0  0  0
  -13.0874   -4.8843  -24.0251 C   0  0  0  0  0  0  0  0  0  0  0  0
  -13.3718   -6.0165  -23.1652 C   0  0  0  0  0  0  0  0  0  0  0  0
  -12.1390   -5.0362  -25.0048 N   0  0  0  0  0  0  0  0  0  0  0  0
  -11.5751   -6.1389  -25.0847 C   0  0  0  0  0  0  0  0  0  0  0  0
  -12.6451   -7.1605  -23.4432 N   0  0  0  0  0  0  0  0  0  0  0  0
  -15.1429   -2.6914  -22.6135 O   0  0  0  0  0  0  0  0  0  0  0  0
  -10.6093   -6.2155  -26.2179 N   0  0  0  0  0  0  0  0  0  0  0  0
  -11.8205   -7.0948  -24.4681 N   0  0  0  0  0  0  0  0  0  0  0  0
  1  2  2  0
  2  3  1  0
  3  4  1  0
  4  5  1  0
  5  6  1  0
  2  7  1  0
  6  7  2  0
  6  8  1  0
  8  9  2  0
  7 10  1  0
  4 11  2  0
  9 12  1  0
  9 13  1  0
 10 13  2  0
M  END
>  <ID>  (1) 
conformer_0

$$$$
