
     RDKit          3D

  9  8  0  0  0  0  0  0  0  0999 V2000
  -15.3319    2.5650  -18.9406 O   0  0  0  0  0  0  0  0  0  0  0  0
  -16.3612    2.7343  -19.8633 P   0  0  0  0  0  0  0  0  0  0  0  0
  -16.0845    3.7035  -20.8518 O   0  0  0  0  0  0  0  0  0  0  0  0
  -16.4731    1.5094  -20.9581 O   0  0  0  0  0  0  0  0  0  0  0  0
  -16.3117    1.3870  -22.3772 P   0  0  0  0  0  0  0  0  0  0  0  0
  -17.0109    0.2964  -23.0182 O   0  0  0  0  0  0  0  0  0  0  0  0
  -17.6262    2.9736  -19.2063 O   0  0  0  0  0  0  0  0  0  0  0  0
  -14.6775    1.0284  -22.3567 O   0  0  0  0  0  0  0  0  0  0  0  0
  -16.7733    2.6695  -22.9691 O   0  0  0  0  0  0  0  0  0  0  0  0
  1  2  1  0
  2  3  2  0
  2  4  1  0
  4  5  1  0
  5  6  2  0
  2  7  1  0
  5  8  1  0
  5  9  1  0
M  END
>  <ID>  (1) 
conformer_0

$$$$
