
     RDKit          3D

 18 20  0  0  0  0  0  0  0  0999 V2000
  -14.3558   -7.2141  -21.4873 O   0  0  0  0  0  0  0  0  0  0  0  0
  -14.2896   -6.0699  -22.2035 C   0  0  0  0  0  0  0  0  0  0  0  0
  -13.4723   -5.9595  -23.3448 C   0  0  0  0  0  0  0  0  0  0  0  0
  -13.4520   -4.7818  -24.0705 C   0  0  0  0  0  0  0  0  0  0  0  0
  -15.0142   -4.9630  -21.7936 N   0  0  0  0  0  0  0  0  0  0  0  0
  -15.0225   -3.8397  -22.5460 C   0  0  0  0  0  0  0  0  0  0  0  0
  -12.5415   -6.9681  -23.7575 N   0  0  0  0  0  0  0  0  0  0  0  0
  -14.1920   -3.6992  -23.6943 N   0  0  0  0  0  0  0  0  0  0  0  0
  -14.1134   -2.4656  -24.4851 C   0  0  0  0  0  0  0  0  0  0  0  0
  -12.5743   -4.7123  -25.1659 N   0  0  0  0  0  0  0  0  0  0  0  0
  -12.3655   -3.6380  -26.0387 C   0  0  0  0  0  0  0  0  0  0  0  0
  -15.7054   -2.8607  -22.2895 O   0  0  0  0  0  0  0  0  0  0  0  0
  -11.8730   -6.5817  -24.9153 C   0  0  0  0  0  0  0  0  0  0  0  0
  -13.3526   -2.6311  -25.5850 O   0  0  0  0  0  0  0  0  0  0  0  0
  -11.7756   -5.6936  -25.5284 C   0  0  0  0  0  0  0  0  0  0  0  0
  -11.0920   -2.9786  -25.8853 C   0  0  0  0  0  0  0  0  0  0  0  0
  -14.8298   -1.4231  -24.3438 C   0  0  0  0  0  0  0  0  0  0  0  0
  -15.3509   -0.9551  -25.6315 O   0  0  0  0  0  0  0  0  0  0  0  0
  1  2  2  0
  2  3  1  0
  3  4  2  0
  2  5  1  0
  5  6  1  0
  3  7  1  0
  4  8  1  0
  6  8  1  0
  8  9  1  0
  4 10  1  0
 10 11  1  0
  6 12  2  0
  7 13  2  0
  9 14  1  0
 11 14  1  0
 10 15  1  0
 13 15  1  0
 11 16  1  0
  9 17  1  0
 17 18  1  0
M  END
>  <ID>  (1) 
conformer_0

$$$$
