
     RDKit          3D

 14 15  0  0  0  0  0  0  0  0999 V2000
  -14.4837   -5.6393  -22.4307 C   0  0  0  0  0  0  0  0  0  0  0  0
  -13.7219   -5.4309  -23.3084 C   0  0  0  0  0  0  0  0  0  0  0  0
  -12.6387   -6.3019  -23.7551 C   0  0  0  0  0  0  0  0  0  0  0  0
  -13.8223   -4.2134  -24.1399 N   0  0  0  0  0  0  0  0  0  0  0  0
  -15.3978   -4.6740  -22.0462 C   0  0  0  0  0  0  0  0  0  0  0  0
  -16.2493   -4.7991  -21.0440 O   0  0  0  0  0  0  0  0  0  0  0  0
  -12.9454   -3.9501  -25.1830 C   0  0  0  0  0  0  0  0  0  0  0  0
  -15.5171   -3.4683  -22.7124 N   0  0  0  0  0  0  0  0  0  0  0  0
  -11.8938   -6.1865  -24.7459 C   0  0  0  0  0  0  0  0  0  0  0  0
  -10.9264   -6.9252  -25.1034 O   0  0  0  0  0  0  0  0  0  0  0  0
  -14.6565   -3.1410  -23.7157 C   0  0  0  0  0  0  0  0  0  0  0  0
  -11.9212   -4.9606  -25.5501 C   0  0  0  0  0  0  0  0  0  0  0  0
  -14.5175   -6.7980  -21.6542 O   0  0  0  0  0  0  0  0  0  0  0  0
  -14.7038   -2.0152  -24.2704 O   0  0  0  0  0  0  0  0  0  0  0  0
  1  2  1  0
  2  3  2  0
  2  4  1  0
  1  5  1  0
  5  6  2  0
  4  7  1  0
  5  8  1  0
  3  9  1  0
  9 10  1  0
  4 11  1  0
  8 11  1  0
  7 12  1  0
  9 12  2  0
  1 13  1  0
 11 14  2  0
M  END
>  <ID>  (1) 
conformer_0

$$$$
