
     RDKit          3D

 11 11  0  0  0  0  0  0  0  0999 V2000
  -14.3960   -7.3106  -21.6919 O   0  0  0  0  0  0  0  0  0  0  0  0
  -14.1839   -6.1341  -22.1428 C   0  0  0  0  0  0  0  0  0  0  0  0
  -13.3723   -5.8806  -23.3217 C   0  0  0  0  0  0  0  0  0  0  0  0
  -14.7719   -5.1613  -21.5367 O   0  0  0  0  0  0  0  0  0  0  0  0
  -13.4694   -4.6358  -23.9878 N   0  0  0  0  0  0  0  0  0  0  0  0
  -12.6170   -4.3681  -24.9905 C   0  0  0  0  0  0  0  0  0  0  0  0
  -12.5126   -6.6517  -23.9751 N   0  0  0  0  0  0  0  0  0  0  0  0
  -11.7709   -6.0706  -25.0425 C   0  0  0  0  0  0  0  0  0  0  0  0
  -11.7412   -5.1218  -25.3938 C   0  0  0  0  0  0  0  0  0  0  0  0
  -12.8319   -3.0277  -25.2963 O   0  0  0  0  0  0  0  0  0  0  0  0
  -11.1290   -7.2670  -25.2173 O   0  0  0  0  0  0  0  0  0  0  0  0
  1  2  2  0
  2  3  1  0
  2  4  1  0
  3  5  1  0
  5  6  1  0
  3  7  2  0
  7  8  1  0
  6  9  1  0
  8  9  1  0
  6 10  2  0
  8 11  2  0
M  END
>  <ID>  (1) 
conformer_0

$$$$
