
     RDKit          3D

 13 14  0  0  0  0  0  0  0  0999 V2000
  -15.1050   -4.2154  -22.1316 C   0  0  0  0  0  0  0  0  0  0  0  0
  -14.4090   -5.3416  -22.4726 C   0  0  0  0  0  0  0  0  0  0  0  0
  -14.5441   -6.5206  -21.8286 O   0  0  0  0  0  0  0  0  0  0  0  0
  -13.3755   -5.2884  -23.3734 C   0  0  0  0  0  0  0  0  0  0  0  0
  -12.6478   -6.5074  -23.7423 C   0  0  0  0  0  0  0  0  0  0  0  0
  -13.2932   -4.1255  -24.1750 C   0  0  0  0  0  0  0  0  0  0  0  0
  -12.3964   -4.0582  -25.2041 N   0  0  0  0  0  0  0  0  0  0  0  0
  -14.9810   -3.0870  -22.8278 C   0  0  0  0  0  0  0  0  0  0  0  0
  -15.7179   -1.9433  -22.5868 O   0  0  0  0  0  0  0  0  0  0  0  0
  -14.0233   -3.0305  -23.8709 C   0  0  0  0  0  0  0  0  0  0  0  0
  -12.2539   -2.9439  -25.9479 C   0  0  0  0  0  0  0  0  0  0  0  0
  -13.9768   -1.8337  -24.5297 C   0  0  0  0  0  0  0  0  0  0  0  0
  -13.0015   -1.7992  -25.5868 C   0  0  0  0  0  0  0  0  0  0  0  0
  1  2  1  0
  2  3  1  0
  2  4  2  0
  4  5  1  0
  4  6  1  0
  6  7  1  0
  1  8  2  0
  8  9  1  0
  6 10  2  0
  8 10  1  0
  7 11  2  0
 10 12  1  0
 11 13  1  0
 12 13  2  0
M  END
>  <ID>  (1) 
conformer_0

$$$$
