
     RDKit          3D

 14 16  0  0  0  0  0  0  0  0999 V2000
  -15.3561   -5.0529  -21.8450 N   0  0  0  0  0  0  0  0  0  0  0  0
  -15.3823   -4.0450  -22.5696 C   0  0  0  0  0  0  0  0  0  0  0  0
  -16.1289   -3.0532  -22.4237 N   0  0  0  0  0  0  0  0  0  0  0  0
  -14.3642   -3.9150  -23.6532 C   0  0  0  0  0  0  0  0  0  0  0  0
  -14.4924   -2.7687  -24.3676 N   0  0  0  0  0  0  0  0  0  0  0  0
  -14.3902   -6.0547  -22.1953 C   0  0  0  0  0  0  0  0  0  0  0  0
  -13.4587   -4.8694  -23.9122 C   0  0  0  0  0  0  0  0  0  0  0  0
  -12.5126   -4.7907  -24.9215 N   0  0  0  0  0  0  0  0  0  0  0  0
  -11.7104   -5.8960  -25.0013 C   0  0  0  0  0  0  0  0  0  0  0  0
  -13.4739   -5.9610  -23.1363 C   0  0  0  0  0  0  0  0  0  0  0  0
  -11.8116   -7.0093  -24.2756 N   0  0  0  0  0  0  0  0  0  0  0  0
  -12.6778   -7.1250  -23.3288 N   0  0  0  0  0  0  0  0  0  0  0  0
  -14.5317   -7.1148  -21.1333 O   0  0  0  0  0  0  0  0  0  0  0  0
  -15.5066   -1.9960  -23.7533 C   0  0  0  0  0  0  0  0  0  0  0  0
  1  2  1  0
  2  3  1  0
  2  4  2  0
  4  5  1  0
  1  6  2  0
  4  7  1  0
  7  8  1  0
  8  9  2  0
  6 10  1  0
  7 10  2  0
  9 11  1  0
 10 12  1  0
 11 12  2  0
  6 13  1  0
  3 14  1  0
  5 14  2  0
M  END
>  <ID>  (1) 
conformer_0

$$$$
