
     RDKit          3D

 15 16  0  0  0  0  0  0  0  0999 V2000
  -15.2948   -4.3672  -21.6924 N   0  0  0  0  0  0  0  0  0  0  0  0
  -14.5155   -4.9787  -22.5616 C   0  0  0  0  0  0  0  0  0  0  0  0
  -14.0286   -4.2459  -23.7143 C   0  0  0  0  0  0  0  0  0  0  0  0
  -13.0447   -4.8900  -24.5454 C   0  0  0  0  0  0  0  0  0  0  0  0
  -14.2613   -2.9276  -23.9732 C   0  0  0  0  0  0  0  0  0  0  0  0
  -12.5268   -4.2416  -25.6599 N   0  0  0  0  0  0  0  0  0  0  0  0
  -15.5394   -3.0451  -22.0634 C   0  0  0  0  0  0  0  0  0  0  0  0
  -15.0206   -2.3636  -23.1159 N   0  0  0  0  0  0  0  0  0  0  0  0
  -12.5850   -6.2440  -24.2712 C   0  0  0  0  0  0  0  0  0  0  0  0
  -14.1203   -6.3071  -22.3647 C   0  0  0  0  0  0  0  0  0  0  0  0
  -11.2953   -3.8584  -25.6312 O   0  0  0  0  0  0  0  0  0  0  0  0
  -13.3282   -6.9404  -23.1182 N   0  0  0  0  0  0  0  0  0  0  0  0
  -14.6397   -7.1109  -21.2277 O   0  0  0  0  0  0  0  0  0  0  0  0
  -11.7425   -7.0289  -25.0580 N   0  0  0  0  0  0  0  0  0  0  0  0
  -13.0384   -4.3663  -26.7808 O   0  0  0  0  0  0  0  0  0  0  0  0
  1  2  1  0
  2  3  1  0
  3  4  2  0
  3  5  1  0
  4  6  1  0
  1  7  2  0
  5  8  2  0
  7  8  1  0
  4  9  1  0
  2 10  2  0
  6 11  1  0
  9 12  2  0
 10 12  1  0
 10 13  1  0
  9 14  1  0
  6 15  2  0
M  CHG  2   6   1  11  -1
M  END
>  <ID>  (1) 
conformer_0

$$$$
