
     RDKit          3D

 18 20  0  0  0  0  0  0  0  0999 V2000
  -11.8726   -7.0819  -24.8336 N   0  0  0  0  0  0  0  0  0  0  0  0
  -12.7525   -6.3764  -24.0097 C   0  0  0  0  0  0  0  0  0  0  0  0
  -13.0621   -5.0030  -24.3193 C   0  0  0  0  0  0  0  0  0  0  0  0
  -14.0129   -4.2836  -23.5514 N   0  0  0  0  0  0  0  0  0  0  0  0
  -12.6296   -4.2854  -25.3227 C   0  0  0  0  0  0  0  0  0  0  0  0
  -12.9811   -3.0306  -25.5672 N   0  0  0  0  0  0  0  0  0  0  0  0
  -11.5333   -6.2258  -25.9067 C   0  0  0  0  0  0  0  0  0  0  0  0
  -12.5485   -2.2002  -26.6419 C   0  0  0  0  0  0  0  0  0  0  0  0
  -14.1456   -2.5707  -24.7433 C   0  0  0  0  0  0  0  0  0  0  0  0
  -13.1983   -7.1002  -22.8916 N   0  0  0  0  0  0  0  0  0  0  0  0
  -14.5336   -5.0483  -22.3156 C   0  0  0  0  0  0  0  0  0  0  0  0
  -11.7707   -5.0201  -26.1992 N   0  0  0  0  0  0  0  0  0  0  0  0
  -14.4971   -3.0843  -23.6470 C   0  0  0  0  0  0  0  0  0  0  0  0
  -14.1300   -6.4503  -22.1203 C   0  0  0  0  0  0  0  0  0  0  0  0
  -15.2513   -2.5446  -22.7920 O   0  0  0  0  0  0  0  0  0  0  0  0
  -15.9648   -4.9426  -22.1186 O   0  0  0  0  0  0  0  0  0  0  0  0
  -14.7654   -7.1016  -21.2764 O   0  0  0  0  0  0  0  0  0  0  0  0
  -14.6007   -1.3091  -25.1116 O   0  0  0  0  0  0  0  0  0  0  0  0
  1  2  1  0
  2  3  2  0
  3  4  1  0
  3  5  1  0
  5  6  1  0
  1  7  2  0
  6  8  1  0
  6  9  1  0
  2 10  1  0
  4 11  1  0
  5 12  2  0
  7 12  1  0
  4 13  1  0
  9 13  1  0
 10 14  1  0
 11 14  1  0
 13 15  2  0
 11 16  1  0
 14 17  2  0
  9 18  2  0
M  END
>  <ID>  (1) 
conformer_0

$$$$
