
     RDKit          3D

 13 14  0  0  0  0  0  0  0  0999 V2000
  -14.3558   -7.2141  -21.4873 O   0  0  0  0  0  0  0  0  0  0  0  0
  -14.2896   -6.0699  -22.2035 C   0  0  0  0  0  0  0  0  0  0  0  0
  -13.4723   -5.9595  -23.3448 C   0  0  0  0  0  0  0  0  0  0  0  0
  -13.4520   -4.7818  -24.0705 C   0  0  0  0  0  0  0  0  0  0  0  0
  -15.0142   -4.9630  -21.7936 N   0  0  0  0  0  0  0  0  0  0  0  0
  -15.0225   -3.8397  -22.5460 C   0  0  0  0  0  0  0  0  0  0  0  0
  -12.5415   -6.9681  -23.7575 N   0  0  0  0  0  0  0  0  0  0  0  0
  -14.1920   -3.6992  -23.6943 N   0  0  0  0  0  0  0  0  0  0  0  0
  -14.1134   -2.4656  -24.4851 C   0  0  0  0  0  0  0  0  0  0  0  0
  -15.6225   -2.7838  -22.3121 O   0  0  0  0  0  0  0  0  0  0  0  0
  -12.0679   -6.3045  -24.8811 C   0  0  0  0  0  0  0  0  0  0  0  0
  -11.0466   -6.8952  -25.7269 N   0  0  0  0  0  0  0  0  0  0  0  0
  -12.5313   -5.0331  -25.0600 N   0  0  0  0  0  0  0  0  0  0  0  0
  1  2  2  0
  2  3  1  0
  3  4  2  0
  2  5  1  0
  5  6  1  0
  3  7  1  0
  4  8  1  0
  6  8  1  0
  8  9  1  0
  6 10  2  0
  7 11  2  0
 11 12  1  0
  4 13  1  0
 11 13  1  0
M  END
>  <ID>  (1) 
conformer_0

$$$$
