
     RDKit          3D

 18 19  0  0  0  0  0  0  0  0999 V2000
  -15.2948   -4.3672  -21.6924 N   0  0  0  0  0  0  0  0  0  0  0  0
  -14.5155   -4.9787  -22.5616 C   0  0  0  0  0  0  0  0  0  0  0  0
  -14.0286   -4.2459  -23.7143 C   0  0  0  0  0  0  0  0  0  0  0  0
  -13.0447   -4.8900  -24.5454 C   0  0  0  0  0  0  0  0  0  0  0  0
  -14.2613   -2.9276  -23.9732 C   0  0  0  0  0  0  0  0  0  0  0  0
  -12.5268   -4.2416  -25.6599 N   0  0  0  0  0  0  0  0  0  0  0  0
  -14.0833   -6.2596  -22.4070 C   0  0  0  0  0  0  0  0  0  0  0  0
  -13.8089   -2.2675  -25.0922 N   0  0  0  0  0  0  0  0  0  0  0  0
  -11.5869   -4.8758  -26.4472 C   0  0  0  0  0  0  0  0  0  0  0  0
  -12.8995   -2.8977  -25.8931 C   0  0  0  0  0  0  0  0  0  0  0  0
  -13.2120   -6.8621  -23.2389 N   0  0  0  0  0  0  0  0  0  0  0  0
  -15.0846   -2.2152  -23.2879 O   0  0  0  0  0  0  0  0  0  0  0  0
  -12.6972   -6.2077  -24.3049 C   0  0  0  0  0  0  0  0  0  0  0  0
  -14.6099   -6.9710  -21.2565 O   0  0  0  0  0  0  0  0  0  0  0  0
  -14.1854   -0.8676  -25.2798 C   0  0  0  0  0  0  0  0  0  0  0  0
  -12.3582   -2.2659  -26.8626 O   0  0  0  0  0  0  0  0  0  0  0  0
  -15.1078   -0.7659  -26.3220 C   0  0  0  0  0  0  0  0  0  0  0  0
  -12.9447   -0.0345  -25.3517 C   0  0  0  0  0  0  0  0  0  0  0  0
  1  2  1  0
  2  3  1  0
  3  4  2  0
  3  5  1  0
  4  6  1  0
  2  7  2  0
  5  8  1  0
  6  9  1  0
  6 10  1  0
  8 10  1  0
  7 11  1  0
  5 12  2  0
  4 13  1  0
 11 13  2  0
  7 14  1  0
  8 15  1  0
 10 16  2  0
 15 17  1  0
 15 18  1  0
M  END
>  <ID>  (1) 
conformer_0

$$$$
