
     RDKit          3D

 12 13  0  0  0  0  0  0  0  0999 V2000
  -14.4837   -5.6393  -22.4307 C   0  0  0  0  0  0  0  0  0  0  0  0
  -13.7219   -5.4309  -23.3084 C   0  0  0  0  0  0  0  0  0  0  0  0
  -12.6387   -6.3019  -23.7551 C   0  0  0  0  0  0  0  0  0  0  0  0
  -13.8223   -4.2134  -24.1399 N   0  0  0  0  0  0  0  0  0  0  0  0
  -15.3978   -4.6740  -22.0462 C   0  0  0  0  0  0  0  0  0  0  0  0
  -16.2493   -4.7991  -21.0440 O   0  0  0  0  0  0  0  0  0  0  0  0
  -15.2740   -3.3780  -22.6798 N   0  0  0  0  0  0  0  0  0  0  0  0
  -11.6388   -6.0182  -24.7148 C   0  0  0  0  0  0  0  0  0  0  0  0
  -14.5690   -3.1405  -23.6795 C   0  0  0  0  0  0  0  0  0  0  0  0
  -14.4228   -1.9450  -24.0920 O   0  0  0  0  0  0  0  0  0  0  0  0
  -12.9064   -7.6034  -23.3256 N   0  0  0  0  0  0  0  0  0  0  0  0
  -14.2948   -7.0529  -21.9822 C   0  0  0  0  0  0  0  0  0  0  0  0
  1  2  1  0
  2  3  2  0
  2  4  1  0
  1  5  1  0
  5  6  2  0
  5  7  1  0
  3  8  1  0
  4  9  1  0
  7  9  1  0
  9 10  2  0
  3 11  1  0
  1 12  2  0
 11 12  1  0
M  END
>  <ID>  (1) 
conformer_0

$$$$
