
     RDKit          3D

 14 15  0  0  0  0  0  0  0  0999 V2000
  -14.4837   -5.6393  -22.4307 C   0  0  0  0  0  0  0  0  0  0  0  0
  -14.9311   -4.5877  -22.1510 N   0  0  0  0  0  0  0  0  0  0  0  0
  -14.7302   -3.4225  -22.8136 C   0  0  0  0  0  0  0  0  0  0  0  0
  -15.3482   -2.3085  -22.5173 N   0  0  0  0  0  0  0  0  0  0  0  0
  -13.5160   -5.8273  -23.4183 N   0  0  0  0  0  0  0  0  0  0  0  0
  -13.8325   -3.5204  -23.9188 C   0  0  0  0  0  0  0  0  0  0  0  0
  -12.8488   -7.0292  -23.7385 C   0  0  0  0  0  0  0  0  0  0  0  0
  -13.2631   -4.7085  -24.0051 C   0  0  0  0  0  0  0  0  0  0  0  0
  -13.6534   -2.3467  -24.7114 C   0  0  0  0  0  0  0  0  0  0  0  0
  -15.1573   -1.1668  -23.3075 C   0  0  0  0  0  0  0  0  0  0  0  0
  -14.2710   -1.2306  -24.3829 N   0  0  0  0  0  0  0  0  0  0  0  0
  -14.6827   -6.5614  -21.6210 O   0  0  0  0  0  0  0  0  0  0  0  0
  -13.7453   -0.0399  -24.8941 C   0  0  0  0  0  0  0  0  0  0  0  0
  -15.9577   -0.1291  -23.4303 O   0  0  0  0  0  0  0  0  0  0  0  0
  1  2  1  0
  2  3  2  0
  3  4  1  0
  1  5  1  0
  3  6  1  0
  5  7  1  0
  5  8  1  0
  6  8  2  0
  6  9  1  0
  4 10  1  0
  9 11  1  0
 10 11  1  0
  1 12  2  0
 11 13  1  0
 10 14  2  0
M  END
>  <ID>  (1) 
conformer_0

$$$$
