
     RDKit          3D

 14 15  0  0  0  0  0  0  0  0999 V2000
  -14.8303   -7.1538  -21.3273 O   0  0  0  0  0  0  0  0  0  0  0  0
  -14.2937   -6.2239  -22.2192 C   0  0  0  0  0  0  0  0  0  0  0  0
  -13.2899   -6.4861  -23.1547 C   0  0  0  0  0  0  0  0  0  0  0  0
  -14.6991   -4.9830  -21.9790 N   0  0  0  0  0  0  0  0  0  0  0  0
  -14.3842   -3.9479  -22.8633 C   0  0  0  0  0  0  0  0  0  0  0  0
  -15.0346   -2.7404  -22.6796 C   0  0  0  0  0  0  0  0  0  0  0  0
  -13.7089   -4.1817  -23.9873 C   0  0  0  0  0  0  0  0  0  0  0  0
  -13.1524   -5.5344  -24.1178 C   0  0  0  0  0  0  0  0  0  0  0  0
  -14.6876   -1.6740  -23.4531 C   0  0  0  0  0  0  0  0  0  0  0  0
  -13.9765   -1.8433  -24.5325 C   0  0  0  0  0  0  0  0  0  0  0  0
  -13.6720   -0.8051  -25.4194 O   0  0  0  0  0  0  0  0  0  0  0  0
  -13.3414   -3.1128  -24.8810 C   0  0  0  0  0  0  0  0  0  0  0  0
  -12.8433   -7.7400  -23.4174 N   0  0  0  0  0  0  0  0  0  0  0  0
  -14.3778    0.2916  -25.3840 C   0  0  0  0  0  0  0  0  0  0  0  0
  1  2  2  0
  2  3  1  0
  2  4  1  0
  4  5  1  0
  5  6  1  0
  5  7  2  0
  3  8  2  0
  7  8  1  0
  6  9  2  0
  9 10  1  0
 10 11  1  0
  7 12  1  0
 10 12  2  0
  3 13  1  0
 11 14  1  0
M  END
>  <ID>  (1) 
conformer_0

$$$$
