
     RDKit          3D

 13 14  0  0  0  0  0  0  0  0999 V2000
  -14.4837   -5.6393  -22.4307 C   0  0  0  0  0  0  0  0  0  0  0  0
  -13.7219   -5.4309  -23.3084 C   0  0  0  0  0  0  0  0  0  0  0  0
  -12.6387   -6.3019  -23.7551 C   0  0  0  0  0  0  0  0  0  0  0  0
  -13.8223   -4.2134  -24.1399 N   0  0  0  0  0  0  0  0  0  0  0  0
  -12.9276   -3.9679  -25.1760 C   0  0  0  0  0  0  0  0  0  0  0  0
  -12.9737   -2.7389  -25.8602 C   0  0  0  0  0  0  0  0  0  0  0  0
  -14.4695   -6.7165  -21.6600 O   0  0  0  0  0  0  0  0  0  0  0  0
  -11.9180   -4.8776  -25.5172 C   0  0  0  0  0  0  0  0  0  0  0  0
  -15.4678   -4.7408  -22.1615 N   0  0  0  0  0  0  0  0  0  0  0  0
  -11.1256   -4.5612  -26.5032 O   0  0  0  0  0  0  0  0  0  0  0  0
  -15.5903   -3.5692  -22.8576 C   0  0  0  0  0  0  0  0  0  0  0  0
  -14.8083   -3.3612  -23.6487 C   0  0  0  0  0  0  0  0  0  0  0  0
  -11.8010   -6.1729  -24.7692 C   0  0  0  0  0  0  0  0  0  0  0  0
  1  2  1  0
  2  3  2  0
  2  4  1  0
  4  5  1  0
  5  6  1  0
  1  7  2  0
  5  8  1  0
  1  9  1  0
  8 10  1  0
  9 11  1  0
  4 12  1  0
 11 12  2  0
  3 13  1  0
  8 13  2  0
M  END
>  <ID>  (1) 
conformer_0

$$$$
