
     RDKit          3D

 14 15  0  0  0  0  0  0  0  0999 V2000
  -14.7620   -6.5777  -21.5583 O   0  0  0  0  0  0  0  0  0  0  0  0
  -14.5846   -5.4701  -22.2450 C   0  0  0  0  0  0  0  0  0  0  0  0
  -13.7196   -5.4746  -23.3520 C   0  0  0  0  0  0  0  0  0  0  0  0
  -15.3137   -4.3811  -21.8494 N   0  0  0  0  0  0  0  0  0  0  0  0
  -13.5955   -4.2385  -24.0985 C   0  0  0  0  0  0  0  0  0  0  0  0
  -12.9348   -6.4964  -23.7812 C   0  0  0  0  0  0  0  0  0  0  0  0
  -12.6184   -4.3908  -25.1448 N   0  0  0  0  0  0  0  0  0  0  0  0
  -15.1425   -3.2327  -22.6123 C   0  0  0  0  0  0  0  0  0  0  0  0
  -11.9467   -5.4092  -25.4470 C   0  0  0  0  0  0  0  0  0  0  0  0
  -14.2526   -3.1436  -23.7054 N   0  0  0  0  0  0  0  0  0  0  0  0
  -11.0328   -5.3029  -26.5569 C   0  0  0  0  0  0  0  0  0  0  0  0
  -13.0679   -7.7771  -23.0894 O   0  0  0  0  0  0  0  0  0  0  0  0
  -12.0491   -6.6135  -24.7421 N   0  0  0  0  0  0  0  0  0  0  0  0
  -15.7205   -2.1763  -22.3741 O   0  0  0  0  0  0  0  0  0  0  0  0
  1  2  2  0
  2  3  1  0
  2  4  1  0
  3  5  2  0
  3  6  1  0
  5  7  1  0
  4  8  1  0
  7  9  2  0
  5 10  1  0
  8 10  1  0
  9 11  1  0
  6 12  1  0
  6 13  2  0
  9 13  1  0
  8 14  2  0
M  END
>  <ID>  (1) 
conformer_0

$$$$
