
     RDKit          3D

 13 14  0  0  0  0  0  0  0  0999 V2000
  -12.5681   -6.8143  -23.4538 N   0  0  0  0  0  0  0  0  0  0  0  0
  -13.6112   -6.2080  -22.8465 C   0  0  0  0  0  0  0  0  0  0  0  0
  -13.9233   -5.0882  -23.2095 C   0  0  0  0  0  0  0  0  0  0  0  0
  -13.1797   -4.5399  -24.1912 C   0  0  0  0  0  0  0  0  0  0  0  0
  -14.4266   -6.9207  -21.9124 O   0  0  0  0  0  0  0  0  0  0  0  0
  -11.8849   -6.3700  -24.4148 C   0  0  0  0  0  0  0  0  0  0  0  0
  -15.0594   -4.2344  -22.6804 C   0  0  0  0  0  0  0  0  0  0  0  0
  -15.2892   -4.2160  -21.5005 O   0  0  0  0  0  0  0  0  0  0  0  0
  -13.4611   -3.2037  -24.6782 C   0  0  0  0  0  0  0  0  0  0  0  0
  -15.2365   -2.9396  -23.2573 N   0  0  0  0  0  0  0  0  0  0  0  0
  -10.8785   -7.0673  -24.9432 N   0  0  0  0  0  0  0  0  0  0  0  0
  -12.1452   -5.1465  -24.8129 N   0  0  0  0  0  0  0  0  0  0  0  0
  -14.4778   -2.4204  -24.1682 C   0  0  0  0  0  0  0  0  0  0  0  0
  1  2  1  0
  2  3  1  0
  3  4  2  0
  2  5  2  0
  1  6  1  0
  3  7  1  0
  7  8  2  0
  4  9  1  0
  7 10  1  0
  6 11  1  0
  4 12  1  0
  6 12  2  0
  9 13  2  0
 10 13  1  0
M  END
>  <ID>  (1) 
conformer_0

$$$$
