
     RDKit          3D

 12 13  0  0  0  0  0  0  0  0999 V2000
  -14.3928   -7.2022  -21.4556 O   0  0  0  0  0  0  0  0  0  0  0  0
  -14.0614   -6.2972  -22.3613 C   0  0  0  0  0  0  0  0  0  0  0  0
  -13.2348   -6.4082  -23.4397 C   0  0  0  0  0  0  0  0  0  0  0  0
  -14.8728   -5.1093  -22.2546 N   0  0  0  0  0  0  0  0  0  0  0  0
  -14.6998   -4.0333  -22.8927 C   0  0  0  0  0  0  0  0  0  0  0  0
  -13.7721   -4.0716  -24.0367 N   0  0  0  0  0  0  0  0  0  0  0  0
  -13.0501   -5.2247  -24.2638 C   0  0  0  0  0  0  0  0  0  0  0  0
  -15.3361   -2.8628  -22.8182 O   0  0  0  0  0  0  0  0  0  0  0  0
  -12.4181   -7.4148  -23.8300 N   0  0  0  0  0  0  0  0  0  0  0  0
  -12.0881   -5.3134  -25.1397 N   0  0  0  0  0  0  0  0  0  0  0  0
  -13.6153   -2.9279  -24.8911 C   0  0  0  0  0  0  0  0  0  0  0  0
  -11.7375   -6.7447  -24.9377 C   0  0  0  0  0  0  0  0  0  0  0  0
  1  2  2  0
  2  3  1  0
  2  4  1  0
  4  5  1  0
  5  6  1  0
  3  7  1  0
  6  7  1  0
  5  8  2  0
  3  9  1  0
  7 10  2  0
  6 11  1  0
  9 12  2  0
 10 12  1  0
M  END
>  <ID>  (1) 
conformer_0

$$$$
