
     RDKit          3D

 13 14  0  0  0  0  0  0  0  0999 V2000
  -14.6227   -6.9217  -21.4814 O   0  0  0  0  0  0  0  0  0  0  0  0
  -14.1726   -6.0220  -22.3140 C   0  0  0  0  0  0  0  0  0  0  0  0
  -13.2077   -6.1998  -23.2435 C   0  0  0  0  0  0  0  0  0  0  0  0
  -14.6236   -4.8013  -21.9641 N   0  0  0  0  0  0  0  0  0  0  0  0
  -14.6632   -3.8794  -22.8862 C   0  0  0  0  0  0  0  0  0  0  0  0
  -12.5448   -7.3592  -23.5363 N   0  0  0  0  0  0  0  0  0  0  0  0
  -11.3476   -7.0219  -24.2284 C   0  0  0  0  0  0  0  0  0  0  0  0
  -13.1241   -5.0023  -24.1714 C   0  0  0  0  0  0  0  0  0  0  0  0
  -13.7970   -3.9689  -23.8625 N   0  0  0  0  0  0  0  0  0  0  0  0
  -15.2051   -2.6841  -22.7085 O   0  0  0  0  0  0  0  0  0  0  0  0
  -11.4712   -6.3822  -25.4185 C   0  0  0  0  0  0  0  0  0  0  0  0
  -12.1449   -5.0947  -25.2331 N   0  0  0  0  0  0  0  0  0  0  0  0
  -13.5731   -2.7768  -24.8485 C   0  0  0  0  0  0  0  0  0  0  0  0
  1  2  2  0
  2  3  1  0
  2  4  1  0
  4  5  1  0
  3  6  1  0
  6  7  1  0
  3  8  2  0
  5  9  1  0
  8  9  1  0
  5 10  2  0
  7 11  1  0
  8 12  1  0
 11 12  1  0
  9 13  1  0
M  END
>  <ID>  (1) 
conformer_0

$$$$
