
     RDKit          3D

 18 20  0  0  0  0  0  0  0  0999 V2000
  -15.2948   -4.3672  -21.6924 N   0  0  0  0  0  0  0  0  0  0  0  0
  -15.1727   -3.3915  -22.5515 C   0  0  0  0  0  0  0  0  0  0  0  0
  -15.6834   -2.2083  -22.3632 O   0  0  0  0  0  0  0  0  0  0  0  0
  -15.3425   -1.2692  -23.3254 C   0  0  0  0  0  0  0  0  0  0  0  0
  -14.7131   -5.6305  -21.9275 C   0  0  0  0  0  0  0  0  0  0  0  0
  -15.7292    0.0293  -23.1078 C   0  0  0  0  0  0  0  0  0  0  0  0
  -14.3316   -3.7894  -23.6553 C   0  0  0  0  0  0  0  0  0  0  0  0
  -13.9957   -2.8528  -24.6666 C   0  0  0  0  0  0  0  0  0  0  0  0
  -13.7757   -5.1345  -23.6261 C   0  0  0  0  0  0  0  0  0  0  0  0
  -14.1121   -5.9579  -22.7176 N   0  0  0  0  0  0  0  0  0  0  0  0
  -13.4817   -7.3106  -22.8974 C   0  0  0  0  0  0  0  0  0  0  0  0
  -12.5898   -7.3224  -23.8820 N   0  0  0  0  0  0  0  0  0  0  0  0
  -13.2664   -3.1052  -25.6855 O   0  0  0  0  0  0  0  0  0  0  0  0
  -14.4928   -1.5566  -24.4784 C   0  0  0  0  0  0  0  0  0  0  0  0
  -12.8345   -5.7780  -24.5257 C   0  0  0  0  0  0  0  0  0  0  0  0
  -15.0168    0.9932  -22.7536 O   0  0  0  0  0  0  0  0  0  0  0  0
  -17.0461    0.2624  -23.3559 O   0  0  0  0  0  0  0  0  0  0  0  0
  -15.1505   -6.4258  -20.9291 O   0  0  0  0  0  0  0  0  0  0  0  0
  1  2  1  0
  2  3  1  0
  3  4  1  0
  1  5  1  0
  4  6  1  0
  2  7  2  0
  7  8  1  0
  7  9  1  0
  5 10  1  0
  9 10  1  0
 10 11  1  0
 11 12  1  0
  8 13  2  0
  4 14  2  0
  8 14  1  0
  9 15  2  0
 12 15  1  0
  6 16  2  0
  6 17  1  0
  5 18  2  0
M  END
>  <ID>  (1) 
conformer_0

$$$$
