
     RDKit          3D

 12 13  0  0  0  0  0  0  0  0999 V2000
  -14.4837   -5.6393  -22.4307 C   0  0  0  0  0  0  0  0  0  0  0  0
  -13.7219   -5.4309  -23.3084 C   0  0  0  0  0  0  0  0  0  0  0  0
  -12.6387   -6.3019  -23.7551 C   0  0  0  0  0  0  0  0  0  0  0  0
  -13.8223   -4.2134  -24.1399 N   0  0  0  0  0  0  0  0  0  0  0  0
  -15.3978   -4.6740  -22.0462 C   0  0  0  0  0  0  0  0  0  0  0  0
  -16.2493   -4.7991  -21.0440 O   0  0  0  0  0  0  0  0  0  0  0  0
  -12.9454   -3.9501  -25.1830 C   0  0  0  0  0  0  0  0  0  0  0  0
  -15.5171   -3.4683  -22.7124 N   0  0  0  0  0  0  0  0  0  0  0  0
  -14.6064   -3.1732  -23.7015 C   0  0  0  0  0  0  0  0  0  0  0  0
  -11.7752   -5.9732  -24.8345 C   0  0  0  0  0  0  0  0  0  0  0  0
  -14.6119   -6.8996  -21.7123 O   0  0  0  0  0  0  0  0  0  0  0  0
  -11.9297   -4.8572  -25.5051 C   0  0  0  0  0  0  0  0  0  0  0  0
  1  2  1  0
  2  3  2  0
  2  4  1  0
  1  5  1  0
  5  6  2  0
  4  7  1  0
  5  8  1  0
  4  9  1  0
  8  9  2  0
  3 10  1  0
  1 11  1  0
  7 12  1  0
 10 12  2  0
M  END
>  <ID>  (1) 
conformer_0

$$$$
