
     RDKit          3D

 19 21  0  0  0  0  0  0  0  0999 V2000
  -11.4896   -6.8372  -24.8689 N   0  0  0  0  0  0  0  0  0  0  0  0
  -12.5115   -6.2716  -24.1602 C   0  0  0  0  0  0  0  0  0  0  0  0
  -12.8484   -4.9264  -24.4615 C   0  0  0  0  0  0  0  0  0  0  0  0
  -12.1585   -4.3266  -25.5811 C   0  0  0  0  0  0  0  0  0  0  0  0
  -13.8130   -4.2904  -23.7188 N   0  0  0  0  0  0  0  0  0  0  0  0
  -10.9019   -6.2039  -25.8034 C   0  0  0  0  0  0  0  0  0  0  0  0
  -11.3100   -4.8853  -26.1994 C   0  0  0  0  0  0  0  0  0  0  0  0
  -14.3689   -4.9317  -22.6375 C   0  0  0  0  0  0  0  0  0  0  0  0
  -14.2731   -2.9779  -24.0108 C   0  0  0  0  0  0  0  0  0  0  0  0
  -15.1081   -2.5555  -23.1247 O   0  0  0  0  0  0  0  0  0  0  0  0
  -13.9381   -6.3299  -22.3814 C   0  0  0  0  0  0  0  0  0  0  0  0
  -15.0726   -4.6778  -21.5541 O   0  0  0  0  0  0  0  0  0  0  0  0
  -13.8724   -2.2832  -25.0740 C   0  0  0  0  0  0  0  0  0  0  0  0
  -14.1886   -1.1065  -25.3125 C   0  0  0  0  0  0  0  0  0  0  0  0
  -12.7139   -2.9024  -25.7795 C   0  0  0  0  0  0  0  0  0  0  0  0
  -14.4265   -7.0549  -21.3597 O   0  0  0  0  0  0  0  0  0  0  0  0
  -15.4958   -0.8503  -25.7041 O   0  0  0  0  0  0  0  0  0  0  0  0
  -13.4033    0.0059  -25.4495 O   0  0  0  0  0  0  0  0  0  0  0  0
  -13.0522   -6.9916  -23.1617 N   0  0  0  0  0  0  0  0  0  0  0  0
  1  2  1  0
  2  3  2  0
  3  4  1  0
  3  5  1  0
  1  6  2  0
  4  7  2  0
  6  7  1  0
  5  8  1  0
  5  9  1  0
  9 10  2  0
  8 11  1  0
  8 12  2  0
  9 13  1  0
 13 14  1  0
  4 15  1  0
 13 15  2  0
 11 16  2  0
 14 17  2  0
 14 18  1  0
  2 19  1  0
 11 19  1  0
M  END
>  <ID>  (1) 
conformer_0

$$$$
