
     RDKit          3D

 16 18  0  0  0  0  0  0  0  0999 V2000
  -14.4837   -5.6393  -22.4307 C   0  0  0  0  0  0  0  0  0  0  0  0
  -13.7219   -5.4309  -23.3084 C   0  0  0  0  0  0  0  0  0  0  0  0
  -12.6387   -6.3019  -23.7551 C   0  0  0  0  0  0  0  0  0  0  0  0
  -13.8223   -4.2134  -24.1399 N   0  0  0  0  0  0  0  0  0  0  0  0
  -12.9276   -3.9679  -25.1760 C   0  0  0  0  0  0  0  0  0  0  0  0
  -12.9737   -2.7389  -25.8602 C   0  0  0  0  0  0  0  0  0  0  0  0
  -14.4695   -6.7165  -21.6600 O   0  0  0  0  0  0  0  0  0  0  0  0
  -14.8564   -3.3640  -23.9928 C   0  0  0  0  0  0  0  0  0  0  0  0
  -15.5161   -4.8301  -22.0271 N   0  0  0  0  0  0  0  0  0  0  0  0
  -11.8906   -4.8354  -25.5293 C   0  0  0  0  0  0  0  0  0  0  0  0
  -15.5022   -3.5948  -22.7199 C   0  0  0  0  0  0  0  0  0  0  0  0
  -15.1349   -2.3569  -24.7053 O   0  0  0  0  0  0  0  0  0  0  0  0
  -12.2324   -2.7119  -26.9995 C   0  0  0  0  0  0  0  0  0  0  0  0
  -11.0939   -4.5794  -26.5617 C   0  0  0  0  0  0  0  0  0  0  0  0
  -11.7992   -6.2229  -24.7341 C   0  0  0  0  0  0  0  0  0  0  0  0
  -11.1780   -3.5842  -27.3055 C   0  0  0  0  0  0  0  0  0  0  0  0
  1  2  1  0
  2  3  2  0
  2  4  1  0
  4  5  1  0
  5  6  1  0
  1  7  2  0
  4  8  1  0
  1  9  1  0
  5 10  2  0
  8 11  1  0
  9 11  2  0
  8 12  2  0
  6 13  2  0
 10 14  1  0
  3 15  1  0
 10 15  1  0
 13 16  1  0
 14 16  2  0
M  END
>  <ID>  (1) 
conformer_0

$$$$
