
     RDKit          3D

 14 15  0  0  0  0  0  0  0  0999 V2000
  -14.5047   -7.0180  -21.5389 O   0  0  0  0  0  0  0  0  0  0  0  0
  -14.3332   -5.9031  -22.2100 C   0  0  0  0  0  0  0  0  0  0  0  0
  -15.0224   -4.7815  -21.9189 N   0  0  0  0  0  0  0  0  0  0  0  0
  -14.6612   -3.7390  -22.8105 C   0  0  0  0  0  0  0  0  0  0  0  0
  -13.8362   -3.7154  -23.8544 N   0  0  0  0  0  0  0  0  0  0  0  0
  -13.0874   -4.8843  -24.0251 C   0  0  0  0  0  0  0  0  0  0  0  0
  -13.3718   -6.0165  -23.1652 C   0  0  0  0  0  0  0  0  0  0  0  0
  -12.1390   -5.0362  -25.0048 N   0  0  0  0  0  0  0  0  0  0  0  0
  -13.6218   -2.5413  -24.6268 C   0  0  0  0  0  0  0  0  0  0  0  0
  -11.7899   -6.3452  -24.7983 C   0  0  0  0  0  0  0  0  0  0  0  0
  -14.4623   -2.5600  -25.6862 C   0  0  0  0  0  0  0  0  0  0  0  0
  -15.4622   -2.5581  -22.6312 O   0  0  0  0  0  0  0  0  0  0  0  0
  -12.4374   -7.1052  -23.7406 N   0  0  0  0  0  0  0  0  0  0  0  0
  -15.0792   -1.3713  -25.9550 O   0  0  0  0  0  0  0  0  0  0  0  0
  1  2  2  0
  2  3  1  0
  3  4  1  0
  4  5  1  0
  5  6  1  0
  2  7  1  0
  6  7  2  0
  6  8  1  0
  5  9  1  0
  8 10  1  0
  9 11  1  0
  4 12  2  0
  7 13  1  0
 10 13  2  0
 11 14  1  0
M  END
>  <ID>  (1) 
conformer_0

$$$$
