
     RDKit          3D

 11 12  0  0  0  0  0  0  0  0999 V2000
  -14.7011   -7.2150  -21.7638 O   0  0  0  0  0  0  0  0  0  0  0  0
  -13.7718   -6.4678  -22.3363 C   0  0  0  0  0  0  0  0  0  0  0  0
  -14.0315   -5.2857  -22.8162 C   0  0  0  0  0  0  0  0  0  0  0  0
  -14.9522   -4.2796  -22.2920 C   0  0  0  0  0  0  0  0  0  0  0  0
  -12.7603   -7.1601  -22.8321 N   0  0  0  0  0  0  0  0  0  0  0  0
  -13.2805   -4.6970  -23.9245 C   0  0  0  0  0  0  0  0  0  0  0  0
  -12.2319   -6.9150  -24.1053 N   0  0  0  0  0  0  0  0  0  0  0  0
  -14.9674   -3.0147  -22.7708 C   0  0  0  0  0  0  0  0  0  0  0  0
  -14.0039   -2.9227  -23.9230 S   0  0  0  0  0  0  0  0  0  0  0  0
  -12.4070   -5.9062  -24.3562 C   0  0  0  0  0  0  0  0  0  0  0  0
  -13.2293   -3.6746  -24.4994 C   0  0  0  0  0  0  0  0  0  0  0  0
  1  2  2  0
  2  3  1  0
  3  4  1  0
  2  5  1  0
  3  6  2  0
  5  7  1  0
  4  8  2  0
  8  9  1  0
  6 10  1  0
  7 10  2  0
  6 11  1  0
  9 11  2  0
M  END
>  <ID>  (1) 
conformer_0

$$$$
