
     RDKit          3D

 19 21  0  0  0  0  0  0  0  0999 V2000
  -11.8726   -7.0819  -24.8336 N   0  0  0  0  0  0  0  0  0  0  0  0
  -12.7525   -6.3764  -24.0097 C   0  0  0  0  0  0  0  0  0  0  0  0
  -13.0621   -5.0030  -24.3193 C   0  0  0  0  0  0  0  0  0  0  0  0
  -14.0129   -4.2836  -23.5514 N   0  0  0  0  0  0  0  0  0  0  0  0
  -12.6296   -4.2854  -25.3227 C   0  0  0  0  0  0  0  0  0  0  0  0
  -12.9811   -3.0306  -25.5672 N   0  0  0  0  0  0  0  0  0  0  0  0
  -11.5333   -6.2258  -25.9067 C   0  0  0  0  0  0  0  0  0  0  0  0
  -12.5485   -2.2002  -26.6419 C   0  0  0  0  0  0  0  0  0  0  0  0
  -14.1456   -2.5707  -24.7433 C   0  0  0  0  0  0  0  0  0  0  0  0
  -13.1983   -7.1002  -22.8916 N   0  0  0  0  0  0  0  0  0  0  0  0
  -14.5486   -3.1657  -23.6897 C   0  0  0  0  0  0  0  0  0  0  0  0
  -10.6070   -6.9863  -26.8284 N   0  0  0  0  0  0  0  0  0  0  0  0
  -14.2534   -6.5530  -22.1366 C   0  0  0  0  0  0  0  0  0  0  0  0
  -15.2375   -2.2227  -25.7251 O   0  0  0  0  0  0  0  0  0  0  0  0
  -14.6129   -5.1404  -22.3738 C   0  0  0  0  0  0  0  0  0  0  0  0
  -14.2817   -2.4325  -22.3943 O   0  0  0  0  0  0  0  0  0  0  0  0
  -15.9313   -4.7577  -22.1191 O   0  0  0  0  0  0  0  0  0  0  0  0
  -14.7408   -7.1778  -21.2794 O   0  0  0  0  0  0  0  0  0  0  0  0
  -11.7258   -4.9650  -26.1927 N   0  0  0  0  0  0  0  0  0  0  0  0
  1  2  1  0
  2  3  2  0
  3  4  1  0
  3  5  1  0
  5  6  1  0
  1  7  2  0
  6  8  1  0
  6  9  1  0
  2 10  1  0
  4 11  1  0
  9 11  1  0
  7 12  1  0
 10 13  1  0
  9 14  1  0
  4 15  1  0
 13 15  1  0
 11 16  1  0
 15 17  1  0
 13 18  2  0
  5 19  2  0
  7 19  1  0
M  END
>  <ID>  (1) 
conformer_0

$$$$
