
     RDKit          3D

 20 21  0  0  0  0  0  0  0  0999 V2000
  -14.4837   -5.6393  -22.4307 C   0  0  0  0  0  0  0  0  0  0  0  0
  -13.7219   -5.4309  -23.3084 C   0  0  0  0  0  0  0  0  0  0  0  0
  -13.6399   -4.0702  -23.9268 C   0  0  0  0  0  0  0  0  0  0  0  0
  -12.7190   -6.3078  -23.5307 C   0  0  0  0  0  0  0  0  0  0  0  0
  -12.7592   -3.8434  -24.9315 N   0  0  0  0  0  0  0  0  0  0  0  0
  -14.5763   -3.0683  -23.7940 N   0  0  0  0  0  0  0  0  0  0  0  0
  -11.7739   -5.9316  -24.6639 N   0  0  0  0  0  0  0  0  0  0  0  0
  -15.5392   -4.8368  -22.0072 O   0  0  0  0  0  0  0  0  0  0  0  0
  -14.1918   -1.7526  -23.6536 C   0  0  0  0  0  0  0  0  0  0  0  0
  -14.6758   -1.0014  -24.7216 C   0  0  0  0  0  0  0  0  0  0  0  0
  -11.7945   -4.8214  -25.2097 C   0  0  0  0  0  0  0  0  0  0  0  0
  -14.3895   -6.6562  -21.5363 O   0  0  0  0  0  0  0  0  0  0  0  0
  -14.6410   -1.0922  -22.4519 O   0  0  0  0  0  0  0  0  0  0  0  0
  -15.2254    0.2509  -24.2120 C   0  0  0  0  0  0  0  0  0  0  0  0
  -15.7889    1.2640  -24.6530 O   0  0  0  0  0  0  0  0  0  0  0  0
  -15.2974   -0.0167  -22.7926 N   0  0  0  0  0  0  0  0  0  0  0  0
  -15.8960    0.8240  -21.8217 C   0  0  0  0  0  0  0  0  0  0  0  0
  -17.1024    1.4483  -22.1420 C   0  0  0  0  0  0  0  0  0  0  0  0
  -18.0134    0.6801  -22.6599 O   0  0  0  0  0  0  0  0  0  0  0  0
  -17.4738    2.3807  -21.2653 O   0  0  0  0  0  0  0  0  0  0  0  0
  1  2  1  0
  2  3  1  0
  2  4  2  0
  3  5  2  0
  3  6  1  0
  4  7  1  0
  1  8  2  0
  6  9  1  0
  9 10  1  0
  5 11  1  0
  7 11  2  0
  1 12  1  0
  9 13  1  0
 10 14  1  0
 14 15  2  0
 13 16  1  0
 14 16  1  0
 16 17  1  0
 17 18  1  0
 18 19  2  0
 18 20  1  0
M  END
>  <ID>  (1) 
conformer_0

$$$$
