
     RDKit          3D

 11 12  0  0  0  0  0  0  0  0999 V2000
  -14.4265   -7.2153  -21.4531 O   0  0  0  0  0  0  0  0  0  0  0  0
  -14.0708   -6.3015  -22.3534 C   0  0  0  0  0  0  0  0  0  0  0  0
  -13.2536   -6.4102  -23.4276 C   0  0  0  0  0  0  0  0  0  0  0  0
  -12.5465   -7.5719  -23.7635 N   0  0  0  0  0  0  0  0  0  0  0  0
  -14.8554   -5.0701  -22.3289 N   0  0  0  0  0  0  0  0  0  0  0  0
  -11.7535   -7.2853  -24.8233 C   0  0  0  0  0  0  0  0  0  0  0  0
  -11.8058   -6.0652  -25.3627 C   0  0  0  0  0  0  0  0  0  0  0  0
  -12.7617   -5.4564  -24.3932 C   0  0  0  0  0  0  0  0  0  0  0  0
  -13.3933   -4.1268  -24.2398 N   0  0  0  0  0  0  0  0  0  0  0  0
  -14.3849   -3.9809  -23.2393 C   0  0  0  0  0  0  0  0  0  0  0  0
  -14.9255   -2.7815  -23.1845 O   0  0  0  0  0  0  0  0  0  0  0  0
  1  2  2  0
  2  3  1  0
  3  4  1  0
  2  5  1  0
  4  6  1  0
  6  7  2  0
  3  8  2  0
  7  8  1  0
  8  9  1  0
  5 10  1  0
  9 10  1  0
 10 11  2  0
M  END
>  <ID>  (1) 
conformer_0

$$$$
