
     RDKit          3D

 14 15  0  0  0  0  0  0  0  0999 V2000
  -14.4837   -5.6393  -22.4307 C   0  0  0  0  0  0  0  0  0  0  0  0
  -13.7219   -5.4309  -23.3084 C   0  0  0  0  0  0  0  0  0  0  0  0
  -12.6387   -6.3019  -23.7551 C   0  0  0  0  0  0  0  0  0  0  0  0
  -13.8223   -4.2134  -24.1399 N   0  0  0  0  0  0  0  0  0  0  0  0
  -12.9276   -3.9679  -25.1760 C   0  0  0  0  0  0  0  0  0  0  0  0
  -12.9737   -2.7389  -25.8602 C   0  0  0  0  0  0  0  0  0  0  0  0
  -14.4695   -6.7165  -21.6600 O   0  0  0  0  0  0  0  0  0  0  0  0
  -14.5613   -3.1627  -23.6948 C   0  0  0  0  0  0  0  0  0  0  0  0
  -15.4169   -3.4824  -22.5685 C   0  0  0  0  0  0  0  0  0  0  0  0
  -14.7153   -2.0649  -24.3578 O   0  0  0  0  0  0  0  0  0  0  0  0
  -12.2192   -5.0051  -25.7999 C   0  0  0  0  0  0  0  0  0  0  0  0
  -12.0513   -6.1969  -25.0060 C   0  0  0  0  0  0  0  0  0  0  0  0
  -15.3239   -4.6297  -21.8771 N   0  0  0  0  0  0  0  0  0  0  0  0
  -11.2473   -7.1621  -25.3548 O   0  0  0  0  0  0  0  0  0  0  0  0
  1  2  1  0
  2  3  2  0
  2  4  1  0
  4  5  1  0
  5  6  1  0
  1  7  2  0
  4  8  1  0
  8  9  1  0
  8 10  2  0
  5 11  2  0
  3 12  1  0
 11 12  1  0
  1 13  1  0
  9 13  2  0
 12 14  2  0
M  END
>  <ID>  (1) 
conformer_0

$$$$
