
     RDKit          3D

 12 13  0  0  0  0  0  0  0  0999 V2000
  -14.4265   -7.2153  -21.4531 O   0  0  0  0  0  0  0  0  0  0  0  0
  -14.0708   -6.3015  -22.3534 C   0  0  0  0  0  0  0  0  0  0  0  0
  -13.2536   -6.4102  -23.4276 C   0  0  0  0  0  0  0  0  0  0  0  0
  -12.5465   -7.5719  -23.7635 N   0  0  0  0  0  0  0  0  0  0  0  0
  -14.8554   -5.0701  -22.3289 N   0  0  0  0  0  0  0  0  0  0  0  0
  -11.7535   -7.2853  -24.8233 C   0  0  0  0  0  0  0  0  0  0  0  0
  -12.9329   -5.3256  -24.2201 C   0  0  0  0  0  0  0  0  0  0  0  0
  -14.4898   -4.0503  -23.0308 C   0  0  0  0  0  0  0  0  0  0  0  0
  -13.6376   -4.1055  -24.0584 N   0  0  0  0  0  0  0  0  0  0  0  0
  -11.9843   -5.8419  -25.1481 N   0  0  0  0  0  0  0  0  0  0  0  0
  -14.9728   -2.9981  -22.8916 O   0  0  0  0  0  0  0  0  0  0  0  0
  -13.2429   -3.0577  -24.9684 C   0  0  0  0  0  0  0  0  0  0  0  0
  1  2  2  0
  2  3  1  0
  3  4  1  0
  2  5  1  0
  4  6  1  0
  3  7  2  0
  5  8  1  0
  7  9  1  0
  8  9  1  0
  6 10  2  0
  7 10  1  0
  8 11  2  0
  9 12  1  0
M  END
>  <ID>  (1) 
conformer_0

$$$$
