
     RDKit          3D

 11 12  0  0  0  0  0  0  0  0999 V2000
  -14.4047   -7.1644  -21.4096 O   0  0  0  0  0  0  0  0  0  0  0  0
  -13.8157   -6.4805  -22.3937 C   0  0  0  0  0  0  0  0  0  0  0  0
  -12.9863   -7.0027  -23.2595 N   0  0  0  0  0  0  0  0  0  0  0  0
  -12.4587   -6.2056  -24.2303 C   0  0  0  0  0  0  0  0  0  0  0  0
  -14.3644   -5.1084  -22.6655 C   0  0  0  0  0  0  0  0  0  0  0  0
  -13.7354   -4.3330  -23.6689 C   0  0  0  0  0  0  0  0  0  0  0  0
  -12.8186   -4.9102  -24.4709 N   0  0  0  0  0  0  0  0  0  0  0  0
  -15.2113   -4.4762  -21.8762 N   0  0  0  0  0  0  0  0  0  0  0  0
  -14.3556   -3.1492  -23.5306 N   0  0  0  0  0  0  0  0  0  0  0  0
  -15.2166   -3.0331  -22.5798 C   0  0  0  0  0  0  0  0  0  0  0  0
  -11.3838   -6.7243  -25.1599 N   0  0  0  0  0  0  0  0  0  0  0  0
  1  2  2  0
  2  3  1  0
  3  4  1  0
  2  5  1  0
  5  6  1  0
  4  7  2  0
  6  7  1  0
  5  8  2  0
  6  9  2  0
  8 10  1  0
  9 10  1  0
  4 11  1  0
M  END
>  <ID>  (1) 
conformer_0

$$$$
