
     RDKit          3D

 13 14  0  0  0  0  0  0  0  0999 V2000
  -14.3558   -7.2141  -21.4873 O   0  0  0  0  0  0  0  0  0  0  0  0
  -14.2896   -6.0699  -22.2035 C   0  0  0  0  0  0  0  0  0  0  0  0
  -13.4723   -5.9595  -23.3448 C   0  0  0  0  0  0  0  0  0  0  0  0
  -13.4520   -4.7818  -24.0705 C   0  0  0  0  0  0  0  0  0  0  0  0
  -15.0142   -4.9630  -21.7936 N   0  0  0  0  0  0  0  0  0  0  0  0
  -15.0225   -3.8397  -22.5460 C   0  0  0  0  0  0  0  0  0  0  0  0
  -12.5415   -6.9681  -23.7575 N   0  0  0  0  0  0  0  0  0  0  0  0
  -14.1920   -3.6992  -23.6943 N   0  0  0  0  0  0  0  0  0  0  0  0
  -14.1134   -2.4656  -24.4851 C   0  0  0  0  0  0  0  0  0  0  0  0
  -12.5743   -4.7123  -25.1659 N   0  0  0  0  0  0  0  0  0  0  0  0
  -15.6842   -2.6684  -22.4246 O   0  0  0  0  0  0  0  0  0  0  0  0
  -11.8401   -6.7652  -24.8294 C   0  0  0  0  0  0  0  0  0  0  0  0
  -11.8205   -5.6130  -25.5320 C   0  0  0  0  0  0  0  0  0  0  0  0
  1  2  2  0
  2  3  1  0
  3  4  2  0
  2  5  1  0
  5  6  1  0
  3  7  1  0
  4  8  1  0
  6  8  1  0
  8  9  1  0
  4 10  1  0
  6 11  2  0
  7 12  2  0
 10 13  2  0
 12 13  1  0
M  END
>  <ID>  (1) 
conformer_0

$$$$
