
     RDKit          3D

  9  9  0  0  0  0  0  0  0  0999 V2000
  -15.1050   -4.2154  -22.1316 C   0  0  0  0  0  0  0  0  0  0  0  0
  -14.4090   -5.3416  -22.4726 C   0  0  0  0  0  0  0  0  0  0  0  0
  -14.5441   -6.5206  -21.8286 O   0  0  0  0  0  0  0  0  0  0  0  0
  -13.3755   -5.2884  -23.3734 C   0  0  0  0  0  0  0  0  0  0  0  0
  -13.2804   -4.1515  -24.2013 C   0  0  0  0  0  0  0  0  0  0  0  0
  -15.0000   -3.1038  -22.8855 C   0  0  0  0  0  0  0  0  0  0  0  0
  -12.5630   -6.4483  -23.8004 C   0  0  0  0  0  0  0  0  0  0  0  0
  -11.9152   -6.4704  -24.8126 N   0  0  0  0  0  0  0  0  0  0  0  0
  -14.0274   -3.0399  -23.9054 C   0  0  0  0  0  0  0  0  0  0  0  0
  1  2  1  0
  2  3  1  0
  2  4  2  0
  4  5  1  0
  1  6  2  0
  4  7  1  0
  7  8  2  0
  5  9  2  0
  6  9  1  0
M  END
>  <ID>  (1) 
conformer_0

$$$$
