
     RDKit          3D

 14 16  0  0  0  0  0  0  0  0999 V2000
  -11.4896   -6.8372  -24.8689 N   0  0  0  0  0  0  0  0  0  0  0  0
  -12.5115   -6.2716  -24.1602 C   0  0  0  0  0  0  0  0  0  0  0  0
  -12.8484   -4.9264  -24.4615 C   0  0  0  0  0  0  0  0  0  0  0  0
  -12.1585   -4.3266  -25.5811 C   0  0  0  0  0  0  0  0  0  0  0  0
  -13.8130   -4.2904  -23.7188 N   0  0  0  0  0  0  0  0  0  0  0  0
  -11.1819   -4.9587  -26.1771 C   0  0  0  0  0  0  0  0  0  0  0  0
  -14.3843   -4.8757  -22.7126 C   0  0  0  0  0  0  0  0  0  0  0  0
  -10.8981   -6.3086  -25.8100 C   0  0  0  0  0  0  0  0  0  0  0  0
  -14.0075   -2.8962  -23.9210 C   0  0  0  0  0  0  0  0  0  0  0  0
  -14.1133   -6.2461  -22.4065 C   0  0  0  0  0  0  0  0  0  0  0  0
  -13.1910   -6.9366  -23.1180 N   0  0  0  0  0  0  0  0  0  0  0  0
  -15.2545   -2.5080  -23.4217 C   0  0  0  0  0  0  0  0  0  0  0  0
  -14.7031   -6.8740  -21.4605 O   0  0  0  0  0  0  0  0  0  0  0  0
  -15.4099   -4.0724  -22.1778 C   0  0  0  0  0  0  0  0  0  0  0  0
  1  2  1  0
  2  3  2  0
  3  4  1  0
  3  5  1  0
  4  6  2  0
  5  7  1  0
  1  8  2  0
  6  8  1  0
  5  9  1  0
  7 10  1  0
  2 11  1  0
 10 11  1  0
  9 12  1  0
 10 13  2  0
  7 14  1  0
 12 14  1  0
M  END
>  <ID>  (1) 
conformer_0

$$$$
