
     RDKit          3D

 15 16  0  0  0  0  0  0  0  0999 V2000
  -14.4837   -5.6393  -22.4307 C   0  0  0  0  0  0  0  0  0  0  0  0
  -13.7219   -5.4309  -23.3084 C   0  0  0  0  0  0  0  0  0  0  0  0
  -12.6387   -6.3019  -23.7551 C   0  0  0  0  0  0  0  0  0  0  0  0
  -13.8223   -4.2134  -24.1399 N   0  0  0  0  0  0  0  0  0  0  0  0
  -12.9276   -3.9679  -25.1760 C   0  0  0  0  0  0  0  0  0  0  0  0
  -12.9737   -2.7389  -25.8602 C   0  0  0  0  0  0  0  0  0  0  0  0
  -14.4695   -6.7165  -21.6600 O   0  0  0  0  0  0  0  0  0  0  0  0
  -14.8564   -3.3640  -23.9928 C   0  0  0  0  0  0  0  0  0  0  0  0
  -15.5161   -4.8301  -22.0271 N   0  0  0  0  0  0  0  0  0  0  0  0
  -11.8906   -4.8354  -25.5293 C   0  0  0  0  0  0  0  0  0  0  0  0
  -12.8940   -2.7522  -27.1276 O   0  0  0  0  0  0  0  0  0  0  0  0
  -11.8381   -6.1255  -24.6920 C   0  0  0  0  0  0  0  0  0  0  0  0
  -15.6640   -3.6420  -22.8197 C   0  0  0  0  0  0  0  0  0  0  0  0
  -11.0399   -7.1030  -25.1546 N   0  0  0  0  0  0  0  0  0  0  0  0
  -13.0836   -1.5956  -25.1830 O   0  0  0  0  0  0  0  0  0  0  0  0
  1  2  1  0
  2  3  2  0
  2  4  1  0
  4  5  1  0
  5  6  1  0
  1  7  2  0
  4  8  1  0
  1  9  1  0
  5 10  2  0
  6 11  2  0
  3 12  1  0
 10 12  1  0
  8 13  2  0
  9 13  1  0
 12 14  1  0
  6 15  1  0
M  END
>  <ID>  (1) 
conformer_0

$$$$
