
     RDKit          3D

 13 14  0  0  0  0  0  0  0  0999 V2000
  -14.3558   -7.2141  -21.4873 O   0  0  0  0  0  0  0  0  0  0  0  0
  -14.2896   -6.0699  -22.2035 C   0  0  0  0  0  0  0  0  0  0  0  0
  -13.4723   -5.9595  -23.3448 C   0  0  0  0  0  0  0  0  0  0  0  0
  -12.7016   -7.0290  -23.8275 N   0  0  0  0  0  0  0  0  0  0  0  0
  -14.8182   -5.0121  -21.6186 N   0  0  0  0  0  0  0  0  0  0  0  0
  -14.8917   -3.8677  -22.4008 C   0  0  0  0  0  0  0  0  0  0  0  0
  -14.1403   -3.6932  -23.5836 N   0  0  0  0  0  0  0  0  0  0  0  0
  -12.4305   -6.7681  -25.1918 C   0  0  0  0  0  0  0  0  0  0  0  0
  -12.4330   -5.6326  -25.8190 C   0  0  0  0  0  0  0  0  0  0  0  0
  -13.5019   -4.7329  -24.0865 C   0  0  0  0  0  0  0  0  0  0  0  0
  -12.9323   -4.6173  -25.3236 C   0  0  0  0  0  0  0  0  0  0  0  0
  -14.1671   -2.3580  -24.2542 C   0  0  0  0  0  0  0  0  0  0  0  0
  -15.4099   -2.8166  -21.9706 O   0  0  0  0  0  0  0  0  0  0  0  0
  1  2  2  0
  2  3  1  0
  3  4  1  0
  2  5  1  0
  5  6  1  0
  6  7  1  0
  4  8  2  0
  8  9  1  0
  3 10  2  0
  7 10  1  0
  9 11  2  0
 10 11  1  0
  7 12  1  0
  6 13  2  0
M  END
>  <ID>  (1) 
conformer_0

$$$$
