
     RDKit          3D

 12 13  0  0  0  0  0  0  0  0999 V2000
  -12.5681   -6.8143  -23.4538 N   0  0  0  0  0  0  0  0  0  0  0  0
  -13.4823   -6.4740  -22.9191 C   0  0  0  0  0  0  0  0  0  0  0  0
  -11.8790   -6.3863  -24.5059 C   0  0  0  0  0  0  0  0  0  0  0  0
  -14.0815   -5.2534  -23.1293 C   0  0  0  0  0  0  0  0  0  0  0  0
  -13.4130   -4.4796  -24.1507 C   0  0  0  0  0  0  0  0  0  0  0  0
  -12.3160   -5.0301  -24.8335 N   0  0  0  0  0  0  0  0  0  0  0  0
  -14.0028   -3.2424  -24.3797 N   0  0  0  0  0  0  0  0  0  0  0  0
  -14.9981   -3.1971  -23.4692 C   0  0  0  0  0  0  0  0  0  0  0  0
  -15.0072   -4.3244  -22.6677 N   0  0  0  0  0  0  0  0  0  0  0  0
  -15.7617   -2.1891  -23.3305 O   0  0  0  0  0  0  0  0  0  0  0  0
  -11.0556   -6.8528  -25.3561 N   0  0  0  0  0  0  0  0  0  0  0  0
  -14.0212   -7.2699  -21.8787 O   0  0  0  0  0  0  0  0  0  0  0  0
  1  2  1  0
  1  3  1  0
  2  4  1  0
  4  5  1  0
  3  6  1  0
  5  6  1  0
  5  7  2  0
  7  8  1  0
  4  9  1  0
  8  9  1  0
  8 10  2  0
  3 11  2  0
  2 12  2  0
M  END
>  <ID>  (1) 
conformer_0

$$$$
