
     RDKit          3D

 12 13  0  0  0  0  0  0  0  0999 V2000
  -14.4837   -5.6393  -22.4307 C   0  0  0  0  0  0  0  0  0  0  0  0
  -13.7219   -5.4309  -23.3084 C   0  0  0  0  0  0  0  0  0  0  0  0
  -12.6387   -6.3019  -23.7551 C   0  0  0  0  0  0  0  0  0  0  0  0
  -13.8223   -4.2134  -24.1399 N   0  0  0  0  0  0  0  0  0  0  0  0
  -12.9276   -3.9679  -25.1760 C   0  0  0  0  0  0  0  0  0  0  0  0
  -12.9737   -2.7389  -25.8602 C   0  0  0  0  0  0  0  0  0  0  0  0
  -14.4695   -6.7165  -21.6600 O   0  0  0  0  0  0  0  0  0  0  0  0
  -14.8564   -3.3640  -23.9928 C   0  0  0  0  0  0  0  0  0  0  0  0
  -14.0088   -1.9300  -25.3650 C   0  0  0  0  0  0  0  0  0  0  0  0
  -15.3667   -4.6851  -21.9581 N   0  0  0  0  0  0  0  0  0  0  0  0
  -14.5116   -2.0144  -24.0014 C   0  0  0  0  0  0  0  0  0  0  0  0
  -15.4689   -3.5640  -22.5727 C   0  0  0  0  0  0  0  0  0  0  0  0
  1  2  1  0
  2  3  2  0
  2  4  1  0
  4  5  1  0
  5  6  1  0
  1  7  2  0
  4  8  1  0
  6  9  1  0
  1 10  1  0
  8 11  1  0
  9 11  1  0
  8 12  1  0
 10 12  2  0
M  END
>  <ID>  (1) 
conformer_0

$$$$
