
     RDKit          3D

 14 15  0  0  0  0  0  0  0  0999 V2000
  -15.2948   -4.3672  -21.6924 N   0  0  0  0  0  0  0  0  0  0  0  0
  -14.5155   -4.9787  -22.5616 C   0  0  0  0  0  0  0  0  0  0  0  0
  -14.0286   -4.2459  -23.7143 C   0  0  0  0  0  0  0  0  0  0  0  0
  -13.0447   -4.8900  -24.5454 C   0  0  0  0  0  0  0  0  0  0  0  0
  -14.2613   -2.9276  -23.9732 C   0  0  0  0  0  0  0  0  0  0  0  0
  -12.5268   -4.2416  -25.6599 N   0  0  0  0  0  0  0  0  0  0  0  0
  -14.0833   -6.2596  -22.4070 C   0  0  0  0  0  0  0  0  0  0  0  0
  -13.8089   -2.2675  -25.0922 N   0  0  0  0  0  0  0  0  0  0  0  0
  -11.5869   -4.8758  -26.4472 C   0  0  0  0  0  0  0  0  0  0  0  0
  -13.1647   -6.7556  -23.4204 N   0  0  0  0  0  0  0  0  0  0  0  0
  -14.8525   -2.1830  -23.0602 O   0  0  0  0  0  0  0  0  0  0  0  0
  -12.8945   -2.9392  -25.9046 C   0  0  0  0  0  0  0  0  0  0  0  0
  -14.5998   -6.9771  -21.3467 O   0  0  0  0  0  0  0  0  0  0  0  0
  -12.7435   -6.0721  -24.3513 C   0  0  0  0  0  0  0  0  0  0  0  0
  1  2  1  0
  2  3  1  0
  3  4  2  0
  3  5  1  0
  4  6  1  0
  2  7  2  0
  5  8  1  0
  6  9  1  0
  7 10  1  0
  5 11  2  0
  6 12  1  0
  8 12  2  0
  7 13  1  0
  4 14  1  0
 10 14  2  0
M  END
>  <ID>  (1) 
conformer_0

$$$$
