
     RDKit          3D

 12 13  0  0  0  0  0  0  0  0999 V2000
  -14.2910   -7.2294  -21.5490 O   0  0  0  0  0  0  0  0  0  0  0  0
  -14.2221   -6.0931  -22.2090 C   0  0  0  0  0  0  0  0  0  0  0  0
  -13.3378   -5.8870  -23.1721 C   0  0  0  0  0  0  0  0  0  0  0  0
  -13.3088   -4.6234  -23.9012 C   0  0  0  0  0  0  0  0  0  0  0  0
  -12.2533   -6.6912  -23.4955 N   0  0  0  0  0  0  0  0  0  0  0  0
  -12.3300   -4.4960  -24.8432 C   0  0  0  0  0  0  0  0  0  0  0  0
  -11.6906   -6.3389  -24.7344 C   0  0  0  0  0  0  0  0  0  0  0  0
  -12.4770   -3.1541  -25.5597 N   0  0  0  0  0  0  0  0  0  0  0  0
  -15.2507   -5.1750  -21.9883 N   0  0  0  0  0  0  0  0  0  0  0  0
  -11.5929   -5.2669  -25.2532 N   0  0  0  0  0  0  0  0  0  0  0  0
  -14.2306   -3.5429  -23.7458 N   0  0  0  0  0  0  0  0  0  0  0  0
  -15.1037   -3.8779  -22.6010 C   0  0  0  0  0  0  0  0  0  0  0  0
  1  2  2  0
  2  3  1  0
  3  4  2  0
  3  5  1  0
  4  6  1  0
  5  7  1  0
  6  8  2  0
  2  9  1  0
  6 10  1  0
  7 10  2  0
  4 11  1  0
  9 12  1  0
 11 12  2  0
M  END
>  <ID>  (1) 
conformer_0

$$$$
