
     RDKit          3D

 17 19  0  0  0  0  0  0  0  0999 V2000
  -14.4837   -5.6393  -22.4307 C   0  0  0  0  0  0  0  0  0  0  0  0
  -14.9311   -4.5877  -22.1510 N   0  0  0  0  0  0  0  0  0  0  0  0
  -14.7302   -3.4225  -22.8136 C   0  0  0  0  0  0  0  0  0  0  0  0
  -15.3482   -2.3085  -22.5173 N   0  0  0  0  0  0  0  0  0  0  0  0
  -13.5160   -5.8273  -23.4183 N   0  0  0  0  0  0  0  0  0  0  0  0
  -13.8325   -3.5204  -23.9188 C   0  0  0  0  0  0  0  0  0  0  0  0
  -12.8488   -7.0292  -23.7385 C   0  0  0  0  0  0  0  0  0  0  0  0
  -13.2631   -4.7085  -24.0051 C   0  0  0  0  0  0  0  0  0  0  0  0
  -13.6534   -2.3467  -24.7114 C   0  0  0  0  0  0  0  0  0  0  0  0
  -15.1573   -1.1668  -23.3075 C   0  0  0  0  0  0  0  0  0  0  0  0
  -15.7817   -0.0314  -22.9796 C   0  0  0  0  0  0  0  0  0  0  0  0
  -14.7004   -6.7243  -21.6115 O   0  0  0  0  0  0  0  0  0  0  0  0
  -16.8362    0.0734  -22.3254 O   0  0  0  0  0  0  0  0  0  0  0  0
  -14.5152   -1.3210  -24.5489 C   0  0  0  0  0  0  0  0  0  0  0  0
  -15.3681    1.1985  -23.5203 O   0  0  0  0  0  0  0  0  0  0  0  0
  -12.2979   -4.9934  -25.2212 N   0  0  0  0  0  0  0  0  0  0  0  0
  -12.0387   -6.6537  -25.0706 C   0  0  0  0  0  0  0  0  0  0  0  0
  1  2  1  0
  2  3  2  0
  3  4  1  0
  1  5  1  0
  3  6  1  0
  5  7  1  0
  5  8  1  0
  6  8  2  0
  6  9  1  0
  4 10  1  0
 10 11  1  0
  1 12  2  0
 11 13  1  0
  9 14  1  0
 10 14  2  0
 11 15  2  0
  8 16  1  0
  7 17  1  0
 16 17  1  0
M  END
>  <ID>  (1) 
conformer_0

$$$$
