
     RDKit          3D

 14 16  0  0  0  0  0  0  0  0999 V2000
  -14.4837   -5.6393  -22.4307 C   0  0  0  0  0  0  0  0  0  0  0  0
  -13.7219   -5.4309  -23.3084 C   0  0  0  0  0  0  0  0  0  0  0  0
  -12.6387   -6.3019  -23.7551 C   0  0  0  0  0  0  0  0  0  0  0  0
  -13.8223   -4.2134  -24.1399 N   0  0  0  0  0  0  0  0  0  0  0  0
  -15.3978   -4.6740  -22.0462 C   0  0  0  0  0  0  0  0  0  0  0  0
  -12.7276   -7.4983  -23.1358 N   0  0  0  0  0  0  0  0  0  0  0  0
  -15.4664   -3.4798  -22.7191 N   0  0  0  0  0  0  0  0  0  0  0  0
  -12.9328   -3.9948  -25.2615 C   0  0  0  0  0  0  0  0  0  0  0  0
  -14.6656   -3.2116  -23.7200 C   0  0  0  0  0  0  0  0  0  0  0  0
  -11.7416   -6.2520  -24.8960 C   0  0  0  0  0  0  0  0  0  0  0  0
  -11.8117   -5.1296  -25.4458 C   0  0  0  0  0  0  0  0  0  0  0  0
  -14.4324   -6.9666  -21.8130 N   0  0  0  0  0  0  0  0  0  0  0  0
  -13.6326   -7.6224  -22.1868 C   0  0  0  0  0  0  0  0  0  0  0  0
  -12.9361   -2.9348  -25.8679 O   0  0  0  0  0  0  0  0  0  0  0  0
  1  2  1  0
  2  3  2  0
  2  4  1  0
  1  5  1  0
  3  6  1  0
  5  7  1  0
  4  8  1  0
  4  9  1  0
  7  9  2  0
  3 10  1  0
  8 11  1  0
 10 11  2  0
  1 12  2  0
  6 13  2  0
 12 13  1  0
  8 14  2  0
M  END
>  <ID>  (1) 
conformer_0

$$$$
