
     RDKit          3D

 11 11  0  0  0  0  0  0  0  0999 V2000
  -12.2166   -6.9682  -24.3269 N   0  0  0  0  0  0  0  0  0  0  0  0
  -13.0938   -6.2569  -23.6508 C   0  0  0  0  0  0  0  0  0  0  0  0
  -13.4522   -4.9685  -24.0659 C   0  0  0  0  0  0  0  0  0  0  0  0
  -14.3667   -4.1934  -23.3642 C   0  0  0  0  0  0  0  0  0  0  0  0
  -13.6501   -6.8104  -22.4873 C   0  0  0  0  0  0  0  0  0  0  0  0
  -14.6213   -6.2326  -21.7682 N   0  0  0  0  0  0  0  0  0  0  0  0
  -14.7698   -2.9008  -23.6375 C   0  0  0  0  0  0  0  0  0  0  0  0
  -14.7858   -2.3958  -24.6945 O   0  0  0  0  0  0  0  0  0  0  0  0
  -15.4362   -2.4568  -22.5264 O   0  0  0  0  0  0  0  0  0  0  0  0
  -14.9576   -4.9232  -22.1052 C   0  0  0  0  0  0  0  0  0  0  0  0
  -12.7786   -4.3601  -25.1153 N   0  0  0  0  0  0  0  0  0  0  0  0
  1  2  1  0
  2  3  1  0
  3  4  2  0
  2  5  2  0
  5  6  1  0
  4  7  1  0
  7  8  2  0
  7  9  1  0
  4 10  1  0
  6 10  2  0
  3 11  1  0
M  END
>  <ID>  (1) 
conformer_0

$$$$
