
     RDKit          3D

 13 14  0  0  0  0  0  0  0  0999 V2000
  -12.5681   -6.8143  -23.4538 N   0  0  0  0  0  0  0  0  0  0  0  0
  -13.4823   -6.4740  -22.9191 C   0  0  0  0  0  0  0  0  0  0  0  0
  -14.1094   -5.2825  -23.0947 C   0  0  0  0  0  0  0  0  0  0  0  0
  -13.4645   -4.5340  -23.8609 C   0  0  0  0  0  0  0  0  0  0  0  0
  -14.1614   -7.4394  -22.0454 O   0  0  0  0  0  0  0  0  0  0  0  0
  -12.3630   -4.8045  -24.6404 N   0  0  0  0  0  0  0  0  0  0  0  0
  -15.1683   -4.7849  -22.2428 C   0  0  0  0  0  0  0  0  0  0  0  0
  -15.7284   -5.4179  -21.2722 O   0  0  0  0  0  0  0  0  0  0  0  0
  -14.0225   -3.2362  -24.4036 N   0  0  0  0  0  0  0  0  0  0  0  0
  -11.8935   -6.0442  -24.4063 C   0  0  0  0  0  0  0  0  0  0  0  0
  -15.0709   -2.7542  -23.6283 C   0  0  0  0  0  0  0  0  0  0  0  0
  -15.7020   -3.5199  -22.5859 N   0  0  0  0  0  0  0  0  0  0  0  0
  -10.8228   -6.3169  -25.0637 O   0  0  0  0  0  0  0  0  0  0  0  0
  1  2  1  0
  2  3  1  0
  3  4  2  0
  2  5  2  0
  4  6  1  0
  3  7  1  0
  7  8  2  0
  4  9  1  0
  1 10  1  0
  6 10  1  0
  9 11  2  0
  7 12  1  0
 11 12  1  0
 10 13  2  0
M  END
>  <ID>  (1) 
conformer_0

$$$$
