
     RDKit          3D

 14 16  0  0  0  0  0  0  0  0999 V2000
  -11.8726   -7.0819  -24.8336 N   0  0  0  0  0  0  0  0  0  0  0  0
  -12.7525   -6.3764  -24.0097 C   0  0  0  0  0  0  0  0  0  0  0  0
  -13.0621   -5.0030  -24.3193 C   0  0  0  0  0  0  0  0  0  0  0  0
  -14.0129   -4.2836  -23.5514 N   0  0  0  0  0  0  0  0  0  0  0  0
  -12.6296   -4.2854  -25.3227 C   0  0  0  0  0  0  0  0  0  0  0  0
  -11.3389   -6.2954  -25.8143 C   0  0  0  0  0  0  0  0  0  0  0  0
  -14.1576   -3.0753  -24.0743 C   0  0  0  0  0  0  0  0  0  0  0  0
  -14.7375   -4.9241  -22.4041 C   0  0  0  0  0  0  0  0  0  0  0  0
  -13.3224   -7.1267  -22.8543 N   0  0  0  0  0  0  0  0  0  0  0  0
  -14.2201   -6.3390  -22.1497 C   0  0  0  0  0  0  0  0  0  0  0  0
  -15.5099   -4.3007  -21.9010 O   0  0  0  0  0  0  0  0  0  0  0  0
  -11.6641   -5.0359  -26.1163 C   0  0  0  0  0  0  0  0  0  0  0  0
  -13.1682   -3.0009  -25.2025 C   0  0  0  0  0  0  0  0  0  0  0  0
  -14.9342   -6.9301  -21.2382 O   0  0  0  0  0  0  0  0  0  0  0  0
  1  2  1  0
  2  3  2  0
  3  4  1  0
  3  5  1  0
  1  6  2  0
  4  7  1  0
  4  8  1  0
  2  9  1  0
  8 10  1  0
  9 10  1  0
  8 11  2  0
  5 12  2  0
  6 12  1  0
  5 13  1  0
  7 13  2  0
 10 14  2  0
M  END
>  <ID>  (1) 
conformer_0

$$$$
