
     RDKit          3D

 15 16  0  0  0  0  0  0  0  0999 V2000
  -11.8726   -7.0819  -24.8336 N   0  0  0  0  0  0  0  0  0  0  0  0
  -12.7525   -6.3764  -24.0097 C   0  0  0  0  0  0  0  0  0  0  0  0
  -13.0621   -5.0030  -24.3193 C   0  0  0  0  0  0  0  0  0  0  0  0
  -14.0129   -4.2836  -23.5514 N   0  0  0  0  0  0  0  0  0  0  0  0
  -12.6296   -4.2854  -25.3227 C   0  0  0  0  0  0  0  0  0  0  0  0
  -11.3389   -6.2954  -25.8143 C   0  0  0  0  0  0  0  0  0  0  0  0
  -14.1576   -3.0753  -24.0743 C   0  0  0  0  0  0  0  0  0  0  0  0
  -14.7375   -4.9241  -22.4041 C   0  0  0  0  0  0  0  0  0  0  0  0
  -14.4326   -6.0642  -21.8982 N   0  0  0  0  0  0  0  0  0  0  0  0
  -11.7099   -4.9569  -26.0903 C   0  0  0  0  0  0  0  0  0  0  0  0
  -14.9579   -6.6880  -21.0618 O   0  0  0  0  0  0  0  0  0  0  0  0
  -14.9924   -2.0398  -23.6672 C   0  0  0  0  0  0  0  0  0  0  0  0
  -15.6326   -4.1104  -21.9734 O   0  0  0  0  0  0  0  0  0  0  0  0
  -15.9381   -1.6732  -24.6300 O   0  0  0  0  0  0  0  0  0  0  0  0
  -13.4294   -3.0325  -25.3152 C   0  0  0  0  0  0  0  0  0  0  0  0
  1  2  1  0
  2  3  2  0
  3  4  1  0
  3  5  1  0
  1  6  2  0
  4  7  1  0
  4  8  1  0
  8  9  1  0
  5 10  2  0
  6 10  1  0
  9 11  1  0
  7 12  1  0
  8 13  2  0
 12 14  1  0
  5 15  1  0
  7 15  2  0
M  END
>  <ID>  (1) 
conformer_0

$$$$
