
     RDKit          3D

 13 14  0  0  0  0  0  0  0  0999 V2000
  -14.5047   -7.0180  -21.5389 O   0  0  0  0  0  0  0  0  0  0  0  0
  -14.3332   -5.9031  -22.2100 C   0  0  0  0  0  0  0  0  0  0  0  0
  -15.0224   -4.7815  -21.9189 N   0  0  0  0  0  0  0  0  0  0  0  0
  -14.6612   -3.7390  -22.8105 C   0  0  0  0  0  0  0  0  0  0  0  0
  -13.8362   -3.7154  -23.8544 N   0  0  0  0  0  0  0  0  0  0  0  0
  -13.0874   -4.8843  -24.0251 C   0  0  0  0  0  0  0  0  0  0  0  0
  -13.3553   -6.0203  -23.2259 C   0  0  0  0  0  0  0  0  0  0  0  0
  -12.1338   -4.9337  -25.0769 N   0  0  0  0  0  0  0  0  0  0  0  0
  -13.6208   -2.5233  -24.6184 C   0  0  0  0  0  0  0  0  0  0  0  0
  -15.2103   -2.7092  -22.6080 O   0  0  0  0  0  0  0  0  0  0  0  0
  -12.5939   -7.2465  -23.5682 N   0  0  0  0  0  0  0  0  0  0  0  0
  -12.2406   -7.1043  -24.9231 C   0  0  0  0  0  0  0  0  0  0  0  0
  -11.6095   -5.8783  -25.4519 C   0  0  0  0  0  0  0  0  0  0  0  0
  1  2  2  0
  2  3  1  0
  3  4  1  0
  4  5  1  0
  5  6  1  0
  2  7  1  0
  6  7  2  0
  6  8  1  0
  5  9  1  0
  4 10  2  0
  7 11  1  0
 11 12  1  0
  8 13  2  0
 12 13  1  0
M  END
>  <ID>  (1) 
conformer_0

$$$$
