
     RDKit          3D

 13 14  0  0  0  0  0  0  0  0999 V2000
  -14.7620   -6.5777  -21.5583 O   0  0  0  0  0  0  0  0  0  0  0  0
  -14.5846   -5.4701  -22.2450 C   0  0  0  0  0  0  0  0  0  0  0  0
  -13.7196   -5.4746  -23.3520 C   0  0  0  0  0  0  0  0  0  0  0  0
  -12.8357   -6.4705  -23.6748 C   0  0  0  0  0  0  0  0  0  0  0  0
  -13.5010   -4.2108  -23.9140 C   0  0  0  0  0  0  0  0  0  0  0  0
  -15.2450   -4.3725  -21.8435 N   0  0  0  0  0  0  0  0  0  0  0  0
  -11.9728   -6.3057  -24.7557 C   0  0  0  0  0  0  0  0  0  0  0  0
  -15.0185   -3.2555  -22.5427 C   0  0  0  0  0  0  0  0  0  0  0  0
  -14.2066   -3.1304  -23.6082 N   0  0  0  0  0  0  0  0  0  0  0  0
  -11.8616   -5.0899  -25.3667 C   0  0  0  0  0  0  0  0  0  0  0  0
  -15.7419   -2.1032  -22.3091 O   0  0  0  0  0  0  0  0  0  0  0  0
  -13.9604   -1.9473  -24.3827 C   0  0  0  0  0  0  0  0  0  0  0  0
  -12.6024   -4.0993  -25.0261 C   0  0  0  0  0  0  0  0  0  0  0  0
  1  2  2  0
  2  3  1  0
  3  4  1  0
  3  5  2  0
  2  6  1  0
  4  7  2  0
  6  8  1  0
  5  9  1  0
  8  9  1  0
  7 10  1  0
  8 11  2  0
  9 12  1  0
  5 13  1  0
 10 13  2  0
M  END
>  <ID>  (1) 
conformer_0

$$$$
