
     RDKit          3D

 18 20  0  0  0  0  0  0  0  0999 V2000
  -11.8726   -7.0819  -24.8336 N   0  0  0  0  0  0  0  0  0  0  0  0
  -12.7525   -6.3764  -24.0097 C   0  0  0  0  0  0  0  0  0  0  0  0
  -13.0621   -5.0030  -24.3193 C   0  0  0  0  0  0  0  0  0  0  0  0
  -14.0129   -4.2836  -23.5514 N   0  0  0  0  0  0  0  0  0  0  0  0
  -12.6296   -4.2854  -25.3227 C   0  0  0  0  0  0  0  0  0  0  0  0
  -12.9811   -3.0306  -25.5672 N   0  0  0  0  0  0  0  0  0  0  0  0
  -11.5333   -6.2258  -25.9067 C   0  0  0  0  0  0  0  0  0  0  0  0
  -14.2822   -3.1165  -24.0917 C   0  0  0  0  0  0  0  0  0  0  0  0
  -10.5361   -6.9776  -26.7831 N   0  0  0  0  0  0  0  0  0  0  0  0
  -13.3350   -6.9703  -22.8209 N   0  0  0  0  0  0  0  0  0  0  0  0
  -11.9234   -5.0149  -26.3159 N   0  0  0  0  0  0  0  0  0  0  0  0
  -13.7868   -2.4231  -24.9460 C   0  0  0  0  0  0  0  0  0  0  0  0
  -14.7361   -4.7927  -22.3184 C   0  0  0  0  0  0  0  0  0  0  0  0
  -14.2937   -6.1724  -22.1632 C   0  0  0  0  0  0  0  0  0  0  0  0
  -14.8020   -6.8844  -21.2145 O   0  0  0  0  0  0  0  0  0  0  0  0
  -16.0932   -4.6835  -22.4405 O   0  0  0  0  0  0  0  0  0  0  0  0
  -14.0427   -0.9922  -25.2945 C   0  0  0  0  0  0  0  0  0  0  0  0
  -15.1456   -2.2082  -23.1184 O   0  0  0  0  0  0  0  0  0  0  0  0
  1  2  1  0
  2  3  2  0
  3  4  1  0
  3  5  1  0
  5  6  1  0
  1  7  2  0
  4  8  1  0
  7  9  1  0
  2 10  1  0
  5 11  2  0
  7 11  1  0
  6 12  2  0
  8 12  1  0
  4 13  1  0
 10 14  1  0
 13 14  1  0
 14 15  2  0
 13 16  1  0
 12 17  1  0
  8 18  2  0
M  END
>  <ID>  (1) 
conformer_0

$$$$
