
     RDKit          3D

 12 12  0  0  0  0  0  0  0  0999 V2000
  -14.7011   -7.2150  -21.7638 O   0  0  0  0  0  0  0  0  0  0  0  0
  -13.7718   -6.4678  -22.3363 C   0  0  0  0  0  0  0  0  0  0  0  0
  -14.0315   -5.2857  -22.8162 C   0  0  0  0  0  0  0  0  0  0  0  0
  -14.9522   -4.2796  -22.2920 C   0  0  0  0  0  0  0  0  0  0  0  0
  -14.8667   -2.9926  -22.9217 C   0  0  0  0  0  0  0  0  0  0  0  0
  -13.2846   -4.7065  -23.9689 C   0  0  0  0  0  0  0  0  0  0  0  0
  -13.4411   -3.5821  -24.5230 C   0  0  0  0  0  0  0  0  0  0  0  0
  -15.8990   -2.1710  -22.3405 O   0  0  0  0  0  0  0  0  0  0  0  0
  -14.3109   -2.6818  -23.9746 C   0  0  0  0  0  0  0  0  0  0  0  0
  -12.4122   -5.6524  -24.6590 N   0  0  0  0  0  0  0  0  0  0  0  0
  -12.7773   -7.2001  -22.6298 O   0  0  0  0  0  0  0  0  0  0  0  0
  -14.5402   -1.3300  -24.4036 O   0  0  0  0  0  0  0  0  0  0  0  0
  1  2  2  0
  2  3  1  0
  3  4  1  0
  4  5  2  0
  3  6  2  0
  6  7  1  0
  5  8  1  0
  5  9  1  0
  7  9  2  0
  6 10  1  0
  2 11  1  0
  9 12  1  0
M  END
>  <ID>  (1) 
conformer_0

$$$$
