
     RDKit          3D

 21 22  0  0  0  0  0  0  0  0999 V2000
  -14.0902   -6.2762  -22.2412 C   0  0  0  0  0  0  0  0  0  0  0  0
  -13.6035   -5.6705  -23.2192 N   0  0  0  0  0  0  0  0  0  0  0  0
  -14.0697   -4.2799  -23.4180 C   0  0  0  0  0  0  0  0  0  0  0  0
  -12.5280   -6.0677  -23.9546 C   0  0  0  0  0  0  0  0  0  0  0  0
  -13.6030   -3.5447  -24.4798 N   0  0  0  0  0  0  0  0  0  0  0  0
  -13.1897   -3.8088  -25.6424 C   0  0  0  0  0  0  0  0  0  0  0  0
  -13.7256   -2.1193  -24.3899 C   0  0  0  0  0  0  0  0  0  0  0  0
  -13.0146   -3.1197  -26.6327 O   0  0  0  0  0  0  0  0  0  0  0  0
  -12.3315   -5.2062  -25.8105 C   0  0  0  0  0  0  0  0  0  0  0  0
  -12.2468   -6.0473  -25.1774 C   0  0  0  0  0  0  0  0  0  0  0  0
  -12.3990   -7.3605  -23.3356 O   0  0  0  0  0  0  0  0  0  0  0  0
  -15.3437   -4.0153  -22.9717 O   0  0  0  0  0  0  0  0  0  0  0  0
  -11.7088   -5.0217  -27.1538 O   0  0  0  0  0  0  0  0  0  0  0  0
  -15.0460   -1.6889  -23.6872 C   0  0  0  0  0  0  0  0  0  0  0  0
  -14.1551   -7.4477  -21.9612 O   0  0  0  0  0  0  0  0  0  0  0  0
  -15.8049   -0.9608  -24.6582 O   0  0  0  0  0  0  0  0  0  0  0  0
  -15.3684    0.1341  -25.1831 C   0  0  0  0  0  0  0  0  0  0  0  0
  -15.0963   -5.4843  -21.3072 O   0  0  0  0  0  0  0  0  0  0  0  0
  -15.0856    1.1554  -24.1687 C   0  0  0  0  0  0  0  0  0  0  0  0
  -15.4154    0.7368  -22.9498 O   0  0  0  0  0  0  0  0  0  0  0  0
  -14.9865   -0.5699  -22.6099 C   0  0  0  0  0  0  0  0  0  0  0  0
  1  2  1  0
  2  3  1  0
  2  4  1  0
  3  5  1  0
  5  6  1  0
  5  7  1  0
  6  8  2  0
  6  9  1  0
  4 10  1  0
  9 10  1  0
  4 11  2  0
  3 12  2  0
  9 13  2  0
  7 14  1  0
  1 15  2  0
 14 16  1  0
 16 17  1  0
  1 18  1  0
 17 19  1  0
 19 20  1  0
 14 21  1  0
 20 21  1  0
M  END
>  <ID>  (1) 
conformer_0

$$$$
