
     RDKit          3D

 13 14  0  0  0  0  0  0  0  0999 V2000
  -12.5681   -6.8143  -23.4538 N   0  0  0  0  0  0  0  0  0  0  0  0
  -13.4823   -6.4740  -22.9191 C   0  0  0  0  0  0  0  0  0  0  0  0
  -11.8790   -6.3863  -24.5059 C   0  0  0  0  0  0  0  0  0  0  0  0
  -14.0815   -5.2534  -23.1293 C   0  0  0  0  0  0  0  0  0  0  0  0
  -13.4130   -4.4796  -24.1507 C   0  0  0  0  0  0  0  0  0  0  0  0
  -12.3160   -5.0301  -24.8335 N   0  0  0  0  0  0  0  0  0  0  0  0
  -14.0028   -3.2424  -24.3797 N   0  0  0  0  0  0  0  0  0  0  0  0
  -14.0497   -7.1965  -21.8543 O   0  0  0  0  0  0  0  0  0  0  0  0
  -14.9220   -2.7101  -23.7713 C   0  0  0  0  0  0  0  0  0  0  0  0
  -15.5354   -3.3672  -22.7227 C   0  0  0  0  0  0  0  0  0  0  0  0
  -15.0723   -4.6543  -22.3387 C   0  0  0  0  0  0  0  0  0  0  0  0
  -11.7491   -4.2401  -25.9945 C   0  0  0  0  0  0  0  0  0  0  0  0
  -11.2032   -6.9261  -25.4492 O   0  0  0  0  0  0  0  0  0  0  0  0
  1  2  1  0
  1  3  1  0
  2  4  1  0
  4  5  1  0
  3  6  1  0
  5  6  1  0
  5  7  2  0
  2  8  2  0
  7  9  1  0
  9 10  2  0
  4 11  2  0
 10 11  1  0
  6 12  1  0
  3 13  2  0
M  END
>  <ID>  (1) 
conformer_0

$$$$
