
     RDKit          3D

 13 13  0  0  0  0  0  0  0  0999 V2000
  -11.4896   -6.8372  -24.8689 N   0  0  0  0  0  0  0  0  0  0  0  0
  -12.5115   -6.2716  -24.1602 C   0  0  0  0  0  0  0  0  0  0  0  0
  -12.8484   -4.9264  -24.4615 C   0  0  0  0  0  0  0  0  0  0  0  0
  -13.2325   -6.8398  -23.0912 N   0  0  0  0  0  0  0  0  0  0  0  0
  -12.1628   -4.2976  -25.5323 C   0  0  0  0  0  0  0  0  0  0  0  0
  -13.8869   -4.4274  -23.6298 C   0  0  0  0  0  0  0  0  0  0  0  0
  -11.9755   -3.1384  -25.3657 O   0  0  0  0  0  0  0  0  0  0  0  0
  -14.4983   -5.1004  -22.6016 C   0  0  0  0  0  0  0  0  0  0  0  0
  -14.1184   -6.3384  -22.3264 C   0  0  0  0  0  0  0  0  0  0  0  0
  -12.1251   -4.8441  -26.6211 N   0  0  0  0  0  0  0  0  0  0  0  0
  -15.5056   -4.4136  -21.8071 C   0  0  0  0  0  0  0  0  0  0  0  0
  -14.5266   -6.9750  -21.3485 O   0  0  0  0  0  0  0  0  0  0  0  0
  -11.7157   -4.1365  -27.8315 C   0  0  0  0  0  0  0  0  0  0  0  0
  1  2  1  0
  2  3  2  0
  2  4  1  0
  3  5  1  0
  3  6  1  0
  5  7  2  0
  6  8  2  0
  4  9  1  0
  8  9  1  0
  5 10  1  0
  8 11  1  0
  9 12  2  0
 10 13  1  0
M  END
>  <ID>  (1) 
conformer_0

$$$$
