
     RDKit          3D

 11 12  0  0  0  0  0  0  0  0999 V2000
  -14.3558   -7.2141  -21.4873 O   0  0  0  0  0  0  0  0  0  0  0  0
  -13.8015   -6.4952  -22.4245 C   0  0  0  0  0  0  0  0  0  0  0  0
  -14.2698   -5.0989  -22.5468 C   0  0  0  0  0  0  0  0  0  0  0  0
  -15.1665   -4.4355  -21.7565 N   0  0  0  0  0  0  0  0  0  0  0  0
  -15.4393   -3.2113  -22.1387 C   0  0  0  0  0  0  0  0  0  0  0  0
  -12.9106   -7.0438  -23.2369 N   0  0  0  0  0  0  0  0  0  0  0  0
  -13.6713   -4.3460  -23.6622 C   0  0  0  0  0  0  0  0  0  0  0  0
  -12.4193   -6.3213  -24.3794 C   0  0  0  0  0  0  0  0  0  0  0  0
  -12.7520   -4.9884  -24.5260 N   0  0  0  0  0  0  0  0  0  0  0  0
  -11.4938   -6.7484  -25.2607 O   0  0  0  0  0  0  0  0  0  0  0  0
  -14.2428   -3.0320  -23.6997 S   0  0  0  0  0  0  0  0  0  0  0  0
  1  2  2  0
  2  3  1  0
  3  4  1  0
  4  5  2  0
  2  6  1  0
  3  7  2  0
  6  8  1  0
  7  9  1  0
  8  9  1  0
  8 10  2  0
  5 11  1  0
  7 11  1  0
M  END
>  <ID>  (1) 
conformer_0

$$$$
