
     RDKit          3D

 12 13  0  0  0  0  0  0  0  0999 V2000
  -14.5047   -7.0180  -21.5389 O   0  0  0  0  0  0  0  0  0  0  0  0
  -14.3332   -5.9031  -22.2100 C   0  0  0  0  0  0  0  0  0  0  0  0
  -15.0224   -4.7815  -21.9189 N   0  0  0  0  0  0  0  0  0  0  0  0
  -14.6612   -3.7390  -22.8105 C   0  0  0  0  0  0  0  0  0  0  0  0
  -13.8362   -3.7154  -23.8544 N   0  0  0  0  0  0  0  0  0  0  0  0
  -13.0874   -4.8843  -24.0251 C   0  0  0  0  0  0  0  0  0  0  0  0
  -13.3553   -6.0203  -23.2259 C   0  0  0  0  0  0  0  0  0  0  0  0
  -12.5000   -7.1157  -23.6241 N   0  0  0  0  0  0  0  0  0  0  0  0
  -12.1513   -5.2173  -24.9733 N   0  0  0  0  0  0  0  0  0  0  0  0
  -15.3485   -2.4551  -22.7211 O   0  0  0  0  0  0  0  0  0  0  0  0
  -11.8278   -6.5084  -24.6994 C   0  0  0  0  0  0  0  0  0  0  0  0
  -11.6809   -4.3101  -26.0567 C   0  0  0  0  0  0  0  0  0  0  0  0
  1  2  2  0
  2  3  1  0
  3  4  1  0
  4  5  1  0
  5  6  1  0
  2  7  1  0
  6  7  2  0
  7  8  1  0
  6  9  1  0
  4 10  2  0
  8 11  2  0
  9 11  1  0
  9 12  1  0
M  END
>  <ID>  (1) 
conformer_0

$$$$
