
     RDKit          3D

 11 11  0  0  0  0  0  0  0  0999 V2000
  -14.4856   -7.1367  -21.3222 O   0  0  0  0  0  0  0  0  0  0  0  0
  -13.8561   -6.4668  -22.3261 C   0  0  0  0  0  0  0  0  0  0  0  0
  -13.0366   -7.0195  -23.1677 N   0  0  0  0  0  0  0  0  0  0  0  0
  -12.4978   -6.2391  -24.1398 C   0  0  0  0  0  0  0  0  0  0  0  0
  -12.9487   -4.9155  -24.1483 C   0  0  0  0  0  0  0  0  0  0  0  0
  -13.9459   -4.4137  -23.3521 C   0  0  0  0  0  0  0  0  0  0  0  0
  -14.3069   -5.2990  -22.2483 C   0  0  0  0  0  0  0  0  0  0  0  0
  -11.5301   -6.7274  -25.0769 N   0  0  0  0  0  0  0  0  0  0  0  0
  -14.3550   -3.0857  -23.4043 N   0  0  0  0  0  0  0  0  0  0  0  0
  -15.3492   -4.5682  -21.4836 N   0  0  0  0  0  0  0  0  0  0  0  0
  -13.8634   -2.1520  -24.0099 O   0  0  0  0  0  0  0  0  0  0  0  0
  1  2  2  0
  2  3  1  0
  3  4  1  0
  4  5  2  0
  5  6  1  0
  2  7  1  0
  6  7  2  0
  4  8  1  0
  6  9  1  0
  7 10  1  0
  9 11  2  0
M  END
>  <ID>  (1) 
conformer_0

$$$$
