
     RDKit          3D

 10 11  0  0  0  0  0  0  0  0999 V2000
  -14.6659   -7.0702  -21.4243 O   0  0  0  0  0  0  0  0  0  0  0  0
  -14.3735   -5.9257  -22.1516 C   0  0  0  0  0  0  0  0  0  0  0  0
  -15.0119   -4.7988  -21.8747 N   0  0  0  0  0  0  0  0  0  0  0  0
  -13.3208   -6.0206  -23.1869 C   0  0  0  0  0  0  0  0  0  0  0  0
  -12.5550   -7.0577  -23.5031 N   0  0  0  0  0  0  0  0  0  0  0  0
  -11.7734   -6.7351  -24.5087 C   0  0  0  0  0  0  0  0  0  0  0  0
  -14.7672   -3.7311  -22.7596 C   0  0  0  0  0  0  0  0  0  0  0  0
  -13.2337   -4.8418  -24.0290 C   0  0  0  0  0  0  0  0  0  0  0  0
  -13.9463   -3.7397  -23.7955 N   0  0  0  0  0  0  0  0  0  0  0  0
  -12.1372   -5.1122  -25.0156 S   0  0  0  0  0  0  0  0  0  0  0  0
  1  2  2  0
  2  3  1  0
  2  4  1  0
  4  5  1  0
  5  6  2  0
  3  7  1  0
  4  8  2  0
  7  9  2  0
  8  9  1  0
  6 10  1  0
  8 10  1  0
M  END
>  <ID>  (1) 
conformer_0

$$$$
