
     RDKit          3D

 17 19  0  0  0  0  0  0  0  0999 V2000
  -14.4837   -5.6393  -22.4307 C   0  0  0  0  0  0  0  0  0  0  0  0
  -13.7219   -5.4309  -23.3084 C   0  0  0  0  0  0  0  0  0  0  0  0
  -12.6387   -6.3019  -23.7551 C   0  0  0  0  0  0  0  0  0  0  0  0
  -13.8223   -4.2134  -24.1399 N   0  0  0  0  0  0  0  0  0  0  0  0
  -12.9276   -3.9679  -25.1760 C   0  0  0  0  0  0  0  0  0  0  0  0
  -12.9737   -2.7389  -25.8602 C   0  0  0  0  0  0  0  0  0  0  0  0
  -14.4695   -6.7165  -21.6600 O   0  0  0  0  0  0  0  0  0  0  0  0
  -14.8564   -3.3640  -23.9928 C   0  0  0  0  0  0  0  0  0  0  0  0
  -15.5161   -4.8301  -22.0271 N   0  0  0  0  0  0  0  0  0  0  0  0
  -14.9682   -2.1973  -24.6900 C   0  0  0  0  0  0  0  0  0  0  0  0
  -12.0688   -2.4266  -26.8040 O   0  0  0  0  0  0  0  0  0  0  0  0
  -13.9882   -1.8427  -25.5423 C   0  0  0  0  0  0  0  0  0  0  0  0
  -15.6921   -3.6399  -22.8305 C   0  0  0  0  0  0  0  0  0  0  0  0
  -11.9854   -4.9657  -25.5346 C   0  0  0  0  0  0  0  0  0  0  0  0
  -11.8245   -6.0943  -24.8118 C   0  0  0  0  0  0  0  0  0  0  0  0
  -14.0659   -0.6291  -26.2000 O   0  0  0  0  0  0  0  0  0  0  0  0
  -11.0883   -7.1186  -25.2089 N   0  0  0  0  0  0  0  0  0  0  0  0
  1  2  1  0
  2  3  2  0
  2  4  1  0
  4  5  1  0
  5  6  1  0
  1  7  2  0
  4  8  1  0
  1  9  1  0
  8 10  2  0
  6 11  2  0
  6 12  1  0
 10 12  1  0
  8 13  1  0
  9 13  1  0
  5 14  2  0
  3 15  1  0
 14 15  1  0
 12 16  1  0
 15 17  1  0
M  END
>  <ID>  (1) 
conformer_0

$$$$
