
     RDKit          3D

 11 12  0  0  0  0  0  0  0  0999 V2000
  -14.3558   -7.2141  -21.4873 O   0  0  0  0  0  0  0  0  0  0  0  0
  -13.8015   -6.4952  -22.4245 C   0  0  0  0  0  0  0  0  0  0  0  0
  -12.9798   -6.8308  -23.3594 N   0  0  0  0  0  0  0  0  0  0  0  0
  -14.3014   -5.0513  -22.4998 C   0  0  0  0  0  0  0  0  0  0  0  0
  -12.4174   -6.1441  -24.3332 C   0  0  0  0  0  0  0  0  0  0  0  0
  -12.7917   -4.7989  -24.4402 N   0  0  0  0  0  0  0  0  0  0  0  0
  -13.7331   -4.2984  -23.6203 C   0  0  0  0  0  0  0  0  0  0  0  0
  -14.1364   -2.9778  -23.7851 N   0  0  0  0  0  0  0  0  0  0  0  0
  -15.0681   -2.7957  -22.8572 C   0  0  0  0  0  0  0  0  0  0  0  0
  -15.2771   -4.1564  -21.8719 S   0  0  0  0  0  0  0  0  0  0  0  0
  -11.5222   -6.6291  -25.1257 O   0  0  0  0  0  0  0  0  0  0  0  0
  1  2  2  0
  2  3  1  0
  2  4  1  0
  3  5  1  0
  5  6  1  0
  4  7  2  0
  6  7  1  0
  7  8  1  0
  8  9  2  0
  4 10  1  0
  9 10  1  0
  5 11  2  0
M  END
>  <ID>  (1) 
conformer_0

$$$$
