
     RDKit          3D

 15 17  0  0  0  0  0  0  0  0999 V2000
  -14.4837   -5.6393  -22.4307 C   0  0  0  0  0  0  0  0  0  0  0  0
  -13.7219   -5.4309  -23.3084 C   0  0  0  0  0  0  0  0  0  0  0  0
  -12.6387   -6.3019  -23.7551 C   0  0  0  0  0  0  0  0  0  0  0  0
  -13.8223   -4.2134  -24.1399 N   0  0  0  0  0  0  0  0  0  0  0  0
  -12.9276   -3.9679  -25.1760 C   0  0  0  0  0  0  0  0  0  0  0  0
  -12.9737   -2.7389  -25.8602 C   0  0  0  0  0  0  0  0  0  0  0  0
  -14.4695   -6.7165  -21.6600 O   0  0  0  0  0  0  0  0  0  0  0  0
  -14.5613   -3.1627  -23.6948 C   0  0  0  0  0  0  0  0  0  0  0  0
  -15.1970   -4.6599  -21.7940 N   0  0  0  0  0  0  0  0  0  0  0  0
  -11.8012   -5.9843  -24.8353 C   0  0  0  0  0  0  0  0  0  0  0  0
  -14.7283   -1.9587  -24.3601 C   0  0  0  0  0  0  0  0  0  0  0  0
  -11.9392   -4.9052  -25.5623 C   0  0  0  0  0  0  0  0  0  0  0  0
  -13.9912   -1.6869  -25.4071 C   0  0  0  0  0  0  0  0  0  0  0  0
  -10.8174   -4.4062  -26.1270 O   0  0  0  0  0  0  0  0  0  0  0  0
  -15.3024   -3.5237  -22.3616 C   0  0  0  0  0  0  0  0  0  0  0  0
  1  2  1  0
  2  3  2  0
  2  4  1  0
  4  5  1  0
  5  6  1  0
  1  7  2  0
  4  8  1  0
  1  9  1  0
  3 10  1  0
  8 11  2  0
  5 12  1  0
 10 12  1  0
  6 13  2  0
 11 13  1  0
 12 14  1  0
  8 15  1  0
  9 15  1  0
M  END
>  <ID>  (1) 
conformer_0

$$$$
