
     RDKit          3D

 10 11  0  0  0  0  0  0  0  0999 V2000
  -12.3085   -6.5707  -24.3425 C   0  0  0  0  0  0  0  0  0  0  0  0
  -12.0443   -5.4805  -24.9473 N   0  0  0  0  0  0  0  0  0  0  0  0
  -13.0376   -4.5431  -24.3677 C   0  0  0  0  0  0  0  0  0  0  0  0
  -13.1546   -3.2523  -24.8621 N   0  0  0  0  0  0  0  0  0  0  0  0
  -14.2027   -2.4852  -24.2316 C   0  0  0  0  0  0  0  0  0  0  0  0
  -14.9217   -3.2021  -23.2415 N   0  0  0  0  0  0  0  0  0  0  0  0
  -13.8297   -4.8958  -23.3316 C   0  0  0  0  0  0  0  0  0  0  0  0
  -13.3095   -6.4756  -23.2350 N   0  0  0  0  0  0  0  0  0  0  0  0
  -14.7445   -4.3301  -22.7992 C   0  0  0  0  0  0  0  0  0  0  0  0
  -15.4406   -4.8124  -21.6316 N   0  0  0  0  0  0  0  0  0  0  0  0
  1  2  1  0
  2  3  2  0
  3  4  1  0
  4  5  1  0
  5  6  2  0
  3  7  1  0
  1  8  2  0
  7  8  1  0
  6  9  1  0
  7  9  2  0
  9 10  1  0
M  END
>  <ID>  (1) 
conformer_0

$$$$
