
     RDKit          3D

 11 12  0  0  0  0  0  0  0  0999 V2000
  -14.4047   -7.1644  -21.4096 O   0  0  0  0  0  0  0  0  0  0  0  0
  -13.8157   -6.4805  -22.3937 C   0  0  0  0  0  0  0  0  0  0  0  0
  -12.9863   -7.0027  -23.2595 N   0  0  0  0  0  0  0  0  0  0  0  0
  -12.3841   -6.3671  -24.2897 C   0  0  0  0  0  0  0  0  0  0  0  0
  -12.6399   -5.0990  -24.3984 N   0  0  0  0  0  0  0  0  0  0  0  0
  -14.1906   -5.0888  -22.6163 C   0  0  0  0  0  0  0  0  0  0  0  0
  -11.3829   -6.8739  -24.9656 N   0  0  0  0  0  0  0  0  0  0  0  0
  -13.5910   -4.4305  -23.6731 C   0  0  0  0  0  0  0  0  0  0  0  0
  -13.9142   -3.1365  -23.8785 N   0  0  0  0  0  0  0  0  0  0  0  0
  -14.8650   -2.9907  -22.8594 C   0  0  0  0  0  0  0  0  0  0  0  0
  -15.1039   -3.9799  -22.0907 N   0  0  0  0  0  0  0  0  0  0  0  0
  1  2  2  0
  2  3  1  0
  3  4  1  0
  4  5  2  0
  2  6  1  0
  4  7  1  0
  5  8  1  0
  6  8  1  0
  8  9  2  0
  9 10  1  0
  6 11  1  0
 10 11  2  0
M  END
>  <ID>  (1) 
conformer_0

$$$$
