
     RDKit          3D

 35 41  0  0  0  0  0  0  0  0999 V2000
   28.3861   26.7246   31.1572 N   0  0  0  0  0  0  0  0  0  0  0  0
   28.5250   27.0962   32.2961 C   0  0  0  0  0  0  0  0  0  0  0  0
   29.7250   27.2322   32.9970 C   0  0  0  0  0  0  0  0  0  0  0  0
   27.3920   27.3544   33.1647 C   0  0  0  0  0  0  0  0  0  0  0  0
   29.7337   27.6923   34.3255 C   0  0  0  0  0  0  0  0  0  0  0  0
   29.4507   26.4017   30.3738 C   0  0  0  0  0  0  0  0  0  0  0  0
   31.0625   27.7700   34.9827 C   0  0  0  0  0  0  0  0  0  0  0  0
   31.1955   28.1666   36.2136 C   0  0  0  0  0  0  0  0  0  0  0  0
   32.2021   27.4832   34.1569 C   0  0  0  0  0  0  0  0  0  0  0  0
   30.0164   28.4645   37.0541 C   0  0  0  0  0  0  0  0  0  0  0  0
   30.6961   26.6155   30.8942 N   0  0  0  0  0  0  0  0  0  0  0  0
   32.5112   28.1877   36.8274 C   0  0  0  0  0  0  0  0  0  0  0  0
   32.7317   28.5507   38.2023 C   0  0  0  0  0  0  0  0  0  0  0  0
   33.5223   27.6243   36.2961 C   0  0  0  0  0  0  0  0  0  0  0  0
   34.8418   27.6188   36.7696 C   0  0  0  0  0  0  0  0  0  0  0  0
   29.1886   27.6731   37.4323 O   0  0  0  0  0  0  0  0  0  0  0  0
   27.6855   28.0042   34.3553 C   0  0  0  0  0  0  0  0  0  0  0  0
   32.1991   26.9847   32.8374 C   0  0  0  0  0  0  0  0  0  0  0  0
   31.7898   26.3646   30.0047 C   0  0  0  0  0  0  0  0  0  0  0  0
   28.7074   28.0456   34.9120 N   0  0  0  0  0  0  0  0  0  0  0  0
   29.8344   29.7721   37.3209 O   0  0  0  0  0  0  0  0  0  0  0  0
   30.8539   26.9477   32.1758 C   0  0  0  0  0  0  0  0  0  0  0  0
   31.7172   29.0909   39.0251 O   0  0  0  0  0  0  0  0  0  0  0  0
   32.1245   29.0645   40.4566 C   0  0  0  0  0  0  0  0  0  0  0  0
   32.2597   29.9138   41.2758 C   0  0  0  0  0  0  0  0  0  0  0  0
   29.4469   26.1049   28.9992 C   0  0  0  0  0  0  0  0  0  0  0  0
   33.4886   27.2411   34.8383 C   0  0  0  0  0  0  0  0  0  0  0  0
   32.8611   29.7931   42.4948 C   0  0  0  0  0  0  0  0  0  0  0  0
   30.7022   25.9751   28.4337 C   0  0  0  0  0  0  0  0  0  0  0  0
   32.9269   27.8556   40.5604 C   0  0  0  0  0  0  0  0  0  0  0  0
   33.5260   27.6653   41.8576 C   0  0  0  0  0  0  0  0  0  0  0  0
   33.5360   28.4235   42.8232 C   0  0  0  0  0  0  0  0  0  0  0  0
   34.9844   28.0185   38.1133 C   0  0  0  0  0  0  0  0  0  0  0  0
   33.8372   28.5478   38.7752 C   0  0  0  0  0  0  0  0  0  0  0  0
   31.7749   26.0727   28.8777 N   0  0  0  0  0  0  0  0  0  0  0  0
  1  2  1  0
  2  3  2  0
  2  4  1  0
  3  5  1  0
  1  6  2  0
  5  7  1  0
  7  8  2  0
  7  9  1  0
  8 10  1  0
  6 11  1  0
  8 12  1  0
 12 13  1  0
 12 14  2  0
 14 15  1  0
 10 16  2  0
  4 17  2  0
  9 18  1  0
 11 19  1  0
  5 20  2  0
 17 20  1  0
 10 21  1  0
  3 22  1  0
 11 22  1  0
 18 22  2  0
 13 23  1  0
 23 24  1  0
 24 25  1  0
  6 26  1  0
  9 27  2  0
 14 27  1  0
 25 28  2  0
 26 29  2  0
 24 30  2  0
 30 31  1  0
 28 32  1  0
 31 32  2  0
 15 33  2  0
 13 34  2  0
 33 34  1  0
 19 35  2  0
 29 35  1  0
M  END
>  <ID>  (1) 
conformer_0

$$$$
