
     RDKit          3D

 38 46  0  0  0  0  0  0  0  0999 V2000
   33.1949   27.0789   31.7935 C   0  0  0  0  0  0  0  0  0  0  0  0
   33.7636   27.3244   32.7670 C   0  0  0  0  0  0  0  0  0  0  0  0
   31.6980   26.9728   31.8957 C   0  0  0  0  0  0  0  0  0  0  0  0
   31.1867   27.0425   33.1756 C   0  0  0  0  0  0  0  0  0  0  0  0
   33.3201   27.3045   34.1004 C   0  0  0  0  0  0  0  0  0  0  0  0
   29.6778   26.9060   33.3010 N   0  0  0  0  0  0  0  0  0  0  0  0
   34.1234   27.5692   35.2957 C   0  0  0  0  0  0  0  0  0  0  0  0
   33.5832   27.9175   36.3965 C   0  0  0  0  0  0  0  0  0  0  0  0
   29.1090   27.5059   34.3296 C   0  0  0  0  0  0  0  0  0  0  0  0
   28.8602   26.4464   32.2350 C   0  0  0  0  0  0  0  0  0  0  0  0
   32.2185   27.8690   36.5086 N   0  0  0  0  0  0  0  0  0  0  0  0
   35.5197   27.5699   35.0881 C   0  0  0  0  0  0  0  0  0  0  0  0
   36.2012   27.7801   36.3724 C   0  0  0  0  0  0  0  0  0  0  0  0
   31.9330   27.3429   34.3251 C   0  0  0  0  0  0  0  0  0  0  0  0
   29.6072   27.6422   35.5972 C   0  0  0  0  0  0  0  0  0  0  0  0
   34.4552   28.1262   37.4811 C   0  0  0  0  0  0  0  0  0  0  0  0
   31.6110   28.0458   37.7935 C   0  0  0  0  0  0  0  0  0  0  0  0
   33.7610   28.5679   38.7928 C   0  0  0  0  0  0  0  0  0  0  0  0
   34.4697   28.8410   39.8280 N   0  0  0  0  0  0  0  0  0  0  0  0
   29.0635   27.7447   36.8393 C   0  0  0  0  0  0  0  0  0  0  0  0
   27.8277   27.9474   34.1116 C   0  0  0  0  0  0  0  0  0  0  0  0
   27.0378   28.3065   35.2560 C   0  0  0  0  0  0  0  0  0  0  0  0
   29.5858   27.8703   38.0649 C   0  0  0  0  0  0  0  0  0  0  0  0
   31.1813   27.2304   35.4577 C   0  0  0  0  0  0  0  0  0  0  0  0
   29.5055   26.0071   31.0701 O   0  0  0  0  0  0  0  0  0  0  0  0
   35.7245   28.1671   37.4086 C   0  0  0  0  0  0  0  0  0  0  0  0
   32.4258   28.4545   38.7620 N   0  0  0  0  0  0  0  0  0  0  0  0
   34.0237   28.6642   41.1169 C   0  0  0  0  0  0  0  0  0  0  0  0
   27.6205   28.2271   36.5332 C   0  0  0  0  0  0  0  0  0  0  0  0
   33.5101   27.5547   41.5418 C   0  0  0  0  0  0  0  0  0  0  0  0
   33.2747   26.5587   40.6209 O   0  0  0  0  0  0  0  0  0  0  0  0
   34.2656   29.7285   42.0190 C   0  0  0  0  0  0  0  0  0  0  0  0
   33.1557   27.2707   42.8999 C   0  0  0  0  0  0  0  0  0  0  0  0
   27.6924   26.8272   32.1031 O   0  0  0  0  0  0  0  0  0  0  0  0
   33.9503   29.5111   43.4297 C   0  0  0  0  0  0  0  0  0  0  0  0
   30.8271   26.6115   30.7521 C   0  0  0  0  0  0  0  0  0  0  0  0
   33.3710   28.2980   43.8152 C   0  0  0  0  0  0  0  0  0  0  0  0
   30.5713   27.5539   38.3337 N   0  0  0  0  0  0  0  0  0  0  0  0
  1  2  2  0
  1  3  1  0
  3  4  2  0
  2  5  1  0
  4  6  1  0
  5  7  1  0
  7  8  1  0
  6  9  1  0
  6 10  1  0
  8 11  1  0
  7 12  2  0
 12 13  1  0
  4 14  1  0
  5 14  2  0
  9 15  1  0
  8 16  2  0
 11 17  1  0
 16 18  1  0
 18 19  1  0
 15 20  2  0
  9 21  2  0
 21 22  1  0
 20 23  1  0
 11 24  1  0
 14 24  1  0
 15 24  1  0
 10 25  1  0
 13 26  2  0
 16 26  1  0
 17 27  1  0
 18 27  2  0
 19 28  1  0
 20 29  1  0
 22 29  2  0
 28 30  2  0
 30 31  1  0
 28 32  1  0
 30 33  1  0
 10 34  2  0
 32 35  2  0
  3 36  1  0
 25 36  1  0
 33 37  2  0
 35 37  1  0
 17 38  1  0
 23 38  1  0
M  END
>  <ID>  (1) 
conformer_0

$$$$
