
     RDKit          3D

 24 29  0  0  0  0  0  0  0  0999 V2000
   31.6785   26.7666   31.6514 N   0  0  0  0  0  0  0  0  0  0  0  0
   30.6217   26.9208   31.8836 C   0  0  0  0  0  0  0  0  0  0  0  0
   30.2598   27.2013   33.2551 C   0  0  0  0  0  0  0  0  0  0  0  0
   31.3558   27.3909   33.9091 C   0  0  0  0  0  0  0  0  0  0  0  0
   32.4086   26.9941   32.9204 N   0  0  0  0  0  0  0  0  0  0  0  0
   29.3523   26.7341   30.9490 C   0  0  0  0  0  0  0  0  0  0  0  0
   28.8942   27.4334   33.7445 C   0  0  0  0  0  0  0  0  0  0  0  0
   28.6312   27.7681   35.0834 C   0  0  0  0  0  0  0  0  0  0  0  0
   31.8681   27.5664   35.2627 C   0  0  0  0  0  0  0  0  0  0  0  0
   31.0663   27.7342   36.2112 N   0  0  0  0  0  0  0  0  0  0  0  0
   33.7640   27.0599   33.1610 C   0  0  0  0  0  0  0  0  0  0  0  0
   29.6307   27.8606   36.1085 C   0  0  0  0  0  0  0  0  0  0  0  0
   29.0019   28.1993   37.2729 O   0  0  0  0  0  0  0  0  0  0  0  0
   29.5912   26.2663   29.7681 N   0  0  0  0  0  0  0  0  0  0  0  0
   27.3871   28.2048   35.1288 C   0  0  0  0  0  0  0  0  0  0  0  0
   33.3073   27.4682   35.6875 C   0  0  0  0  0  0  0  0  0  0  0  0
   34.5935   27.4432   32.2511 C   0  0  0  0  0  0  0  0  0  0  0  0
   27.9947   27.4922   32.8134 C   0  0  0  0  0  0  0  0  0  0  0  0
   34.1602   27.4226   34.5857 C   0  0  0  0  0  0  0  0  0  0  0  0
   35.9723   27.4819   32.4399 C   0  0  0  0  0  0  0  0  0  0  0  0
   26.5169   28.0333   33.8974 S   0  0  0  0  0  0  0  0  0  0  0  0
   36.4489   27.5375   33.7277 C   0  0  0  0  0  0  0  0  0  0  0  0
   28.1267   27.0326   31.4878 N   0  0  0  0  0  0  0  0  0  0  0  0
   35.5344   27.4612   34.8201 C   0  0  0  0  0  0  0  0  0  0  0  0
  1  2  2  0
  2  3  1  0
  3  4  2  0
  1  5  1  0
  4  5  1  0
  2  6  1  0
  3  7  1  0
  7  8  1  0
  4  9  1  0
  9 10  2  0
  5 11  1  0
  8 12  1  0
 10 12  1  0
 12 13  2  0
  6 14  1  0
  8 15  2  0
  9 16  1  0
 11 17  1  0
  7 18  2  0
 11 19  2  0
 16 19  1  0
 17 20  2  0
 15 21  1  0
 18 21  1  0
 20 22  1  0
  6 23  2  0
 18 23  1  0
 19 24  1  0
 22 24  2  0
M  END
>  <ID>  (1) 
conformer_0

$$$$
