
     RDKit          3D

 38 45  0  0  0  0  0  0  0  0999 V2000
   31.6785   26.7666   31.6514 N   0  0  0  0  0  0  0  0  0  0  0  0
   30.6217   26.9208   31.8836 C   0  0  0  0  0  0  0  0  0  0  0  0
   30.2598   27.2013   33.2551 C   0  0  0  0  0  0  0  0  0  0  0  0
   31.3558   27.3909   33.9091 C   0  0  0  0  0  0  0  0  0  0  0  0
   32.4086   26.9941   32.9204 N   0  0  0  0  0  0  0  0  0  0  0  0
   29.3523   26.7341   30.9490 C   0  0  0  0  0  0  0  0  0  0  0  0
   28.8942   27.4334   33.7445 C   0  0  0  0  0  0  0  0  0  0  0  0
   28.6312   27.7681   35.0834 C   0  0  0  0  0  0  0  0  0  0  0  0
   31.8681   27.5664   35.2627 C   0  0  0  0  0  0  0  0  0  0  0  0
   31.0663   27.7342   36.2112 N   0  0  0  0  0  0  0  0  0  0  0  0
   33.7640   27.0599   33.1610 C   0  0  0  0  0  0  0  0  0  0  0  0
   29.6307   27.8606   36.1085 C   0  0  0  0  0  0  0  0  0  0  0  0
   28.1272   26.9707   31.4410 N   0  0  0  0  0  0  0  0  0  0  0  0
   33.2687   27.5299   35.5236 C   0  0  0  0  0  0  0  0  0  0  0  0
   34.6256   27.2664   32.2302 C   0  0  0  0  0  0  0  0  0  0  0  0
   29.1464   28.4907   37.2594 N   0  0  0  0  0  0  0  0  0  0  0  0
   33.7646   27.7176   36.8891 C   0  0  0  0  0  0  0  0  0  0  0  0
   29.4817   26.4135   29.7989 O   0  0  0  0  0  0  0  0  0  0  0  0
   27.4591   28.0365   35.3976 N   0  0  0  0  0  0  0  0  0  0  0  0
   34.1600   28.8912   37.3350 C   0  0  0  0  0  0  0  0  0  0  0  0
   33.7298   26.6799   37.8568 C   0  0  0  0  0  0  0  0  0  0  0  0
   27.5546   28.4534   36.8310 O   0  0  0  0  0  0  0  0  0  0  0  0
   34.1187   27.3370   34.4450 C   0  0  0  0  0  0  0  0  0  0  0  0
   34.3367   29.9741   36.4341 O   0  0  0  0  0  0  0  0  0  0  0  0
   35.7025   30.2978   36.1896 C   0  0  0  0  0  0  0  0  0  0  0  0
   34.0905   26.8692   39.1339 C   0  0  0  0  0  0  0  0  0  0  0  0
   33.9376   25.8457   40.0268 O   0  0  0  0  0  0  0  0  0  0  0  0
   32.7651   25.7255   40.7933 C   0  0  0  0  0  0  0  0  0  0  0  0
   34.6395   29.1301   38.6105 C   0  0  0  0  0  0  0  0  0  0  0  0
   27.9210   27.3653   32.8086 C   0  0  0  0  0  0  0  0  0  0  0  0
   35.0681   30.4255   39.0344 O   0  0  0  0  0  0  0  0  0  0  0  0
   35.6557   27.4274   34.5646 C   0  0  0  0  0  0  0  0  0  0  0  0
   34.5654   28.1357   39.6442 C   0  0  0  0  0  0  0  0  0  0  0  0
   36.0832   27.3575   32.8349 C   0  0  0  0  0  0  0  0  0  0  0  0
   32.8275   26.4805   41.9532 C   0  0  0  0  0  0  0  0  0  0  0  0
   34.9534   28.3616   40.9534 O   0  0  0  0  0  0  0  0  0  0  0  0
   33.8231   28.5456   41.8248 C   0  0  0  0  0  0  0  0  0  0  0  0
   33.4723   27.5119   42.6240 C   0  0  0  0  0  0  0  0  0  0  0  0
  1  2  2  0
  2  3  1  0
  3  4  2  0
  1  5  1  0
  4  5  1  0
  2  6  1  0
  3  7  1  0
  7  8  1  0
  4  9  1  0
  9 10  2  0
  5 11  1  0
  8 12  1  0
 10 12  1  0
  6 13  1  0
  9 14  1  0
 11 15  2  0
 12 16  2  0
 14 17  1  0
  6 18  2  0
  8 19  2  0
 17 20  2  0
 17 21  1  0
 16 22  1  0
 19 22  1  0
 11 23  1  0
 14 23  2  0
 20 24  1  0
 24 25  1  0
 21 26  2  0
 26 27  1  0
 27 28  1  0
 20 29  1  0
  7 30  2  0
 13 30  1  0
 29 31  1  0
 23 32  1  0
 26 33  1  0
 29 33  2  0
 15 34  1  0
 32 34  2  0
 28 35  1  0
 33 36  1  0
 36 37  1  0
 35 38  2  0
 37 38  1  0
M  END
>  <ID>  (1) 
conformer_0

$$$$
