
     RDKit          3D

 19 22  0  0  0  0  0  0  0  0999 V2000
   31.6785   26.7666   31.6514 N   0  0  0  0  0  0  0  0  0  0  0  0
   30.6217   26.9208   31.8836 C   0  0  0  0  0  0  0  0  0  0  0  0
   30.2598   27.2013   33.2551 C   0  0  0  0  0  0  0  0  0  0  0  0
   31.3558   27.3909   33.9091 C   0  0  0  0  0  0  0  0  0  0  0  0
   32.4086   26.9941   32.9204 N   0  0  0  0  0  0  0  0  0  0  0  0
   29.3523   26.7341   30.9490 C   0  0  0  0  0  0  0  0  0  0  0  0
   28.8942   27.4334   33.7445 C   0  0  0  0  0  0  0  0  0  0  0  0
   28.6312   27.7681   35.0834 C   0  0  0  0  0  0  0  0  0  0  0  0
   31.8681   27.5664   35.2627 C   0  0  0  0  0  0  0  0  0  0  0  0
   31.0663   27.7342   36.2112 N   0  0  0  0  0  0  0  0  0  0  0  0
   27.4654   27.9658   35.5034 O   0  0  0  0  0  0  0  0  0  0  0  0
   33.7695   27.0093   33.1445 C   0  0  0  0  0  0  0  0  0  0  0  0
   27.7653   27.2555   32.8691 C   0  0  0  0  0  0  0  0  0  0  0  0
   29.7628   28.0082   35.9138 N   0  0  0  0  0  0  0  0  0  0  0  0
   28.0497   26.9058   31.5370 N   0  0  0  0  0  0  0  0  0  0  0  0
   34.5747   27.7463   32.3372 C   0  0  0  0  0  0  0  0  0  0  0  0
   29.1150   28.2780   37.3906 C   0  0  0  0  0  0  0  0  0  0  0  0
   33.2914   27.4691   35.5993 C   0  0  0  0  0  0  0  0  0  0  0  0
   33.9506   27.7949   34.5090 C   0  0  0  0  0  0  0  0  0  0  0  0
  1  2  2  0
  2  3  1  0
  3  4  2  0
  1  5  1  0
  4  5  1  0
  2  6  1  0
  3  7  1  0
  7  8  1  0
  4  9  1  0
  9 10  2  0
  8 11  2  0
  5 12  1  0
  7 13  2  0
  8 14  1  0
 10 14  1  0
  6 15  2  0
 13 15  1  0
 12 16  1  0
 14 17  1  0
  9 18  1  0
 12 19  1  0
 18 19  1  0
M  END
>  <ID>  (1) 
conformer_0

$$$$
