
     RDKit          3D

 16 18  0  0  0  0  0  0  0  0999 V2000
   28.9601   26.8256   31.4397 C   0  0  0  0  0  0  0  0  0  0  0  0
   27.9217   27.2238   32.0982 N   0  0  0  0  0  0  0  0  0  0  0  0
   30.2141   26.8872   31.9494 N   0  0  0  0  0  0  0  0  0  0  0  0
   29.9495   27.3807   33.2398 C   0  0  0  0  0  0  0  0  0  0  0  0
   31.4442   26.5886   31.3539 C   0  0  0  0  0  0  0  0  0  0  0  0
   28.5273   27.5249   33.2711 C   0  0  0  0  0  0  0  0  0  0  0  0
   32.6168   27.0375   32.0780 C   0  0  0  0  0  0  0  0  0  0  0  0
   31.4221   26.7962   30.1179 O   0  0  0  0  0  0  0  0  0  0  0  0
   27.7767   28.0792   34.4902 C   0  0  0  0  0  0  0  0  0  0  0  0
   30.6173   27.5916   34.4105 N   0  0  0  0  0  0  0  0  0  0  0  0
   32.0656   27.3217   34.4599 C   0  0  0  0  0  0  0  0  0  0  0  0
   32.7843   27.0769   33.3755 N   0  0  0  0  0  0  0  0  0  0  0  0
   32.5477   26.5065   29.4541 C   0  0  0  0  0  0  0  0  0  0  0  0
   30.0193   28.0103   35.5542 C   0  0  0  0  0  0  0  0  0  0  0  0
   32.6061   27.7248   35.5383 O   0  0  0  0  0  0  0  0  0  0  0  0
   28.6712   28.2295   35.5822 N   0  0  0  0  0  0  0  0  0  0  0  0
  1  2  2  0
  1  3  1  0
  3  4  1  0
  3  5  1  0
  2  6  1  0
  4  6  2  0
  5  7  1  0
  5  8  1  0
  6  9  1  0
  4 10  1  0
 10 11  1  0
  7 12  1  0
 11 12  1  0
  8 13  1  0
 10 14  1  0
 11 15  2  0
  9 16  1  0
 14 16  2  0
M  END
>  <ID>  (1) 
conformer_0

$$$$
