
     RDKit          3D

 34 39  0  0  0  0  0  0  0  0999 V2000
   31.6785   26.7666   31.6514 N   0  0  0  0  0  0  0  0  0  0  0  0
   30.6217   26.9208   31.8836 C   0  0  0  0  0  0  0  0  0  0  0  0
   30.2598   27.2013   33.2551 C   0  0  0  0  0  0  0  0  0  0  0  0
   31.3558   27.3909   33.9091 C   0  0  0  0  0  0  0  0  0  0  0  0
   32.4086   26.9941   32.9204 N   0  0  0  0  0  0  0  0  0  0  0  0
   29.3523   26.7341   30.9490 C   0  0  0  0  0  0  0  0  0  0  0  0
   28.8942   27.4334   33.7445 C   0  0  0  0  0  0  0  0  0  0  0  0
   28.6312   27.7681   35.0834 C   0  0  0  0  0  0  0  0  0  0  0  0
   31.8681   27.5664   35.2627 C   0  0  0  0  0  0  0  0  0  0  0  0
   31.0663   27.7342   36.2112 N   0  0  0  0  0  0  0  0  0  0  0  0
   33.7640   27.0599   33.1610 C   0  0  0  0  0  0  0  0  0  0  0  0
   29.6307   27.8606   36.1085 C   0  0  0  0  0  0  0  0  0  0  0  0
   28.1272   26.9707   31.4410 N   0  0  0  0  0  0  0  0  0  0  0  0
   33.2687   27.5299   35.5236 C   0  0  0  0  0  0  0  0  0  0  0  0
   34.6256   27.2664   32.2302 C   0  0  0  0  0  0  0  0  0  0  0  0
   34.1765   27.4491   34.5196 C   0  0  0  0  0  0  0  0  0  0  0  0
   27.8671   27.3221   32.7309 C   0  0  0  0  0  0  0  0  0  0  0  0
   33.6286   27.7696   36.9746 C   0  0  0  0  0  0  0  0  0  0  0  0
   29.0532   28.2038   37.2925 O   0  0  0  0  0  0  0  0  0  0  0  0
   36.0224   27.3327   32.4067 C   0  0  0  0  0  0  0  0  0  0  0  0
   35.7132   27.4814   34.6387 C   0  0  0  0  0  0  0  0  0  0  0  0
   32.9538   27.5080   37.9394 O   0  0  0  0  0  0  0  0  0  0  0  0
   33.2954   28.2331   39.2363 C   0  0  0  0  0  0  0  0  0  0  0  0
   33.4191   29.4883   39.3794 C   0  0  0  0  0  0  0  0  0  0  0  0
   32.6552   27.4338   40.3274 C   0  0  0  0  0  0  0  0  0  0  0  0
   34.9258   28.1709   37.1234 O   0  0  0  0  0  0  0  0  0  0  0  0
   33.5694   30.1048   40.5942 C   0  0  0  0  0  0  0  0  0  0  0  0
   33.2793   29.3239   41.7268 C   0  0  0  0  0  0  0  0  0  0  0  0
   36.4925   27.4935   33.6698 C   0  0  0  0  0  0  0  0  0  0  0  0
   32.9238   27.9883   41.5753 C   0  0  0  0  0  0  0  0  0  0  0  0
   33.4138   29.8623   43.0291 C   0  0  0  0  0  0  0  0  0  0  0  0
   33.1875   29.0992   44.0575 O   0  0  0  0  0  0  0  0  0  0  0  0
   34.2315   30.8430   43.2072 O   0  0  0  0  0  0  0  0  0  0  0  0
   29.6402   26.4365   29.8369 O   0  0  0  0  0  0  0  0  0  0  0  0
  1  2  2  0
  2  3  1  0
  3  4  2  0
  1  5  1  0
  4  5  1  0
  2  6  1  0
  3  7  1  0
  7  8  1  0
  4  9  1  0
  9 10  2  0
  5 11  1  0
  8 12  1  0
 10 12  1  0
  6 13  1  0
  9 14  1  0
 11 15  2  0
 11 16  1  0
 14 16  2  0
  7 17  1  0
 13 17  2  0
 14 18  1  0
 12 19  2  0
 15 20  1  0
 16 21  1  0
 18 22  1  0
 22 23  1  0
 23 24  1  0
 23 25  2  0
 18 26  2  0
 24 27  2  0
 27 28  1  0
 20 29  2  0
 21 29  1  0
 25 30  1  0
 28 30  2  0
 28 31  1  0
 31 32  2  0
 31 33  1  0
  6 34  2  0
M  END
>  <ID>  (1) 
conformer_0

$$$$
