
     RDKit          3D

 32 37  0  0  0  0  0  0  0  0999 V2000
   33.1949   27.0789   31.7935 C   0  0  0  0  0  0  0  0  0  0  0  0
   33.7636   27.3244   32.7670 C   0  0  0  0  0  0  0  0  0  0  0  0
   31.6980   26.9728   31.8957 C   0  0  0  0  0  0  0  0  0  0  0  0
   31.1867   27.0425   33.1756 C   0  0  0  0  0  0  0  0  0  0  0  0
   33.3201   27.3045   34.1004 C   0  0  0  0  0  0  0  0  0  0  0  0
   29.6778   26.9060   33.3010 N   0  0  0  0  0  0  0  0  0  0  0  0
   34.1234   27.5692   35.2957 C   0  0  0  0  0  0  0  0  0  0  0  0
   33.5832   27.9175   36.3965 C   0  0  0  0  0  0  0  0  0  0  0  0
   29.1090   27.5059   34.3296 C   0  0  0  0  0  0  0  0  0  0  0  0
   28.8602   26.4464   32.2350 C   0  0  0  0  0  0  0  0  0  0  0  0
   32.2185   27.8690   36.5086 N   0  0  0  0  0  0  0  0  0  0  0  0
   35.5197   27.5699   35.0881 C   0  0  0  0  0  0  0  0  0  0  0  0
   36.2012   27.7801   36.3724 C   0  0  0  0  0  0  0  0  0  0  0  0
   31.9330   27.3429   34.3251 C   0  0  0  0  0  0  0  0  0  0  0  0
   29.6072   27.6422   35.5972 C   0  0  0  0  0  0  0  0  0  0  0  0
   34.4552   28.1262   37.4811 C   0  0  0  0  0  0  0  0  0  0  0  0
   27.7004   27.1038   32.4574 N   0  0  0  0  0  0  0  0  0  0  0  0
   29.1290   27.9620   36.8096 C   0  0  0  0  0  0  0  0  0  0  0  0
   27.6506   27.7696   33.7225 C   0  0  0  0  0  0  0  0  0  0  0  0
   33.7714   28.5425   38.7884 C   0  0  0  0  0  0  0  0  0  0  0  0
   37.7354   27.8098   36.1243 O   0  0  0  0  0  0  0  0  0  0  0  0
   35.7685   28.2890   37.4407 C   0  0  0  0  0  0  0  0  0  0  0  0
   27.7283   28.1818   36.8817 O   0  0  0  0  0  0  0  0  0  0  0  0
   31.3026   27.4132   35.6355 C   0  0  0  0  0  0  0  0  0  0  0  0
   33.6187   29.8076   39.2540 C   0  0  0  0  0  0  0  0  0  0  0  0
   32.9909   29.8769   40.5382 N   0  0  0  0  0  0  0  0  0  0  0  0
   33.0852   28.6197   41.0488 C   0  0  0  0  0  0  0  0  0  0  0  0
   32.7031   28.2608   42.3325 N   0  0  0  0  0  0  0  0  0  0  0  0
   33.5231   27.7841   40.0055 C   0  0  0  0  0  0  0  0  0  0  0  0
   33.0597   27.0425   42.7479 C   0  0  0  0  0  0  0  0  0  0  0  0
   32.2880   29.1280   43.2272 C   0  0  0  0  0  0  0  0  0  0  0  0
   29.7903   28.0715   38.0807 C   0  0  0  0  0  0  0  0  0  0  0  0
  1  2  2  0
  1  3  1  0
  3  4  2  0
  2  5  1  0
  4  6  1  0
  5  7  1  0
  7  8  1  0
  6  9  1  0
  6 10  1  0
  8 11  1  0
  7 12  2  0
 12 13  1  0
  4 14  1  0
  5 14  2  0
  9 15  1  0
  8 16  2  0
 10 17  2  0
 15 18  2  3
  9 19  2  0
 17 19  1  0
 16 20  1  0
 13 21  1  0
 13 22  2  0
 16 22  1  0
 18 23  1  0
 11 24  2  0
 14 24  1  0
 15 24  1  0
 20 25  2  0
 25 26  1  0
 26 27  2  0
 27 28  1  0
 20 29  1  0
 27 29  1  0
 28 30  1  0
 28 31  1  0
 18 32  1  0
M  END
>  <ID>  (1) 
conformer_0

$$$$
