
     RDKit          3D

 15 16  0  0  0  0  0  0  0  0999 V2000
   32.6601   26.6096   34.4498 C   0  0  0  0  0  0  0  0  0  0  0  0
   31.8120   27.1185   33.7763 C   0  0  0  0  0  0  0  0  0  0  0  0
   31.8105   27.0986   32.3879 C   0  0  0  0  0  0  0  0  0  0  0  0
   30.5054   27.3862   34.2447 C   0  0  0  0  0  0  0  0  0  0  0  0
   34.0035   26.6152   34.0058 C   0  0  0  0  0  0  0  0  0  0  0  0
   29.4623   27.6168   33.4939 C   0  0  0  0  0  0  0  0  0  0  0  0
   30.8349   27.2972   31.4868 C   0  0  0  0  0  0  0  0  0  0  0  0
   35.2316   26.3616   34.7359 O   0  0  0  0  0  0  0  0  0  0  0  0
   29.5570   27.5988   32.0805 C   0  0  0  0  0  0  0  0  0  0  0  0
   28.1021   27.8541   33.9446 N   0  0  0  0  0  0  0  0  0  0  0  0
   33.1650   26.9202   31.7945 C   0  0  0  0  0  0  0  0  0  0  0  0
   27.9239   27.9753   35.2429 O   0  0  0  0  0  0  0  0  0  0  0  0
   35.7701   27.4038   35.3508 C   0  0  0  0  0  0  0  0  0  0  0  0
   34.2167   26.6948   32.5934 C   0  0  0  0  0  0  0  0  0  0  0  0
   27.0861   27.7349   33.2868 O   0  0  0  0  0  0  0  0  0  0  0  0
  1  2  1  0
  2  3  2  0
  2  4  1  0
  1  5  2  0
  4  6  2  0
  3  7  1  0
  5  8  1  0
  6  9  1  0
  7  9  2  0
  6 10  1  0
  3 11  1  0
 10 12  1  0
  8 13  1  0
  5 14  1  0
 11 14  2  0
 10 15  2  0
M  CHG  2  10   1  12  -1
M  END
>  <ID>  (1) 
conformer_0

$$$$
