
     RDKit          3D

 34 39  0  0  0  0  0  0  0  0999 V2000
   33.1949   27.0789   31.7935 C   0  0  0  0  0  0  0  0  0  0  0  0
   33.7636   27.3244   32.7670 C   0  0  0  0  0  0  0  0  0  0  0  0
   31.6980   26.9728   31.8957 C   0  0  0  0  0  0  0  0  0  0  0  0
   31.1867   27.0425   33.1756 C   0  0  0  0  0  0  0  0  0  0  0  0
   33.3201   27.3045   34.1004 C   0  0  0  0  0  0  0  0  0  0  0  0
   29.6778   26.9060   33.3010 N   0  0  0  0  0  0  0  0  0  0  0  0
   34.1234   27.5692   35.2957 C   0  0  0  0  0  0  0  0  0  0  0  0
   33.5832   27.9175   36.3965 C   0  0  0  0  0  0  0  0  0  0  0  0
   29.1090   27.5059   34.3296 C   0  0  0  0  0  0  0  0  0  0  0  0
   28.8602   26.4464   32.2350 C   0  0  0  0  0  0  0  0  0  0  0  0
   32.2185   27.8690   36.5086 N   0  0  0  0  0  0  0  0  0  0  0  0
   35.5197   27.5699   35.0881 C   0  0  0  0  0  0  0  0  0  0  0  0
   36.2012   27.7801   36.3724 C   0  0  0  0  0  0  0  0  0  0  0  0
   31.9330   27.3429   34.3251 C   0  0  0  0  0  0  0  0  0  0  0  0
   29.6072   27.6422   35.5972 C   0  0  0  0  0  0  0  0  0  0  0  0
   34.4552   28.1262   37.4811 C   0  0  0  0  0  0  0  0  0  0  0  0
   27.7004   27.1038   32.4574 N   0  0  0  0  0  0  0  0  0  0  0  0
   29.1290   27.9620   36.8096 C   0  0  0  0  0  0  0  0  0  0  0  0
   27.6506   27.7696   33.7225 C   0  0  0  0  0  0  0  0  0  0  0  0
   33.7714   28.5425   38.7884 C   0  0  0  0  0  0  0  0  0  0  0  0
   32.6688   28.5347   39.0390 O   0  0  0  0  0  0  0  0  0  0  0  0
   34.6988   28.6433   39.8822 N   0  0  0  0  0  0  0  0  0  0  0  0
   35.7846   28.1797   37.4176 C   0  0  0  0  0  0  0  0  0  0  0  0
   34.2423   28.9142   41.2347 C   0  0  0  0  0  0  0  0  0  0  0  0
   33.6278   27.8834   41.8613 C   0  0  0  0  0  0  0  0  0  0  0  0
   27.7118   28.2404   36.8620 O   0  0  0  0  0  0  0  0  0  0  0  0
   34.5532   30.1309   41.7823 C   0  0  0  0  0  0  0  0  0  0  0  0
   33.2585   26.7041   41.2205 F   0  0  0  0  0  0  0  0  0  0  0  0
   29.8237   27.8976   37.9907 C   0  0  0  0  0  0  0  0  0  0  0  0
   34.2499   30.2695   43.1983 C   0  0  0  0  0  0  0  0  0  0  0  0
   33.2282   27.9942   43.1791 C   0  0  0  0  0  0  0  0  0  0  0  0
   34.6037   31.4170   43.8776 N   0  0  0  0  0  0  0  0  0  0  0  0
   33.6033   29.1650   43.8775 C   0  0  0  0  0  0  0  0  0  0  0  0
   31.2070   27.6331   35.5612 C   0  0  0  0  0  0  0  0  0  0  0  0
  1  2  2  0
  1  3  1  0
  3  4  2  0
  2  5  1  0
  4  6  1  0
  5  7  1  0
  7  8  1  0
  6  9  1  0
  6 10  1  0
  8 11  1  0
  7 12  2  0
 12 13  1  0
  4 14  1  0
  5 14  2  0
  9 15  1  0
  8 16  2  0
 10 17  2  0
 15 18  2  3
  9 19  2  0
 17 19  1  0
 16 20  1  0
 20 21  2  0
 20 22  1  0
 13 23  2  0
 16 23  1  0
 22 24  1  0
 24 25  1  0
 18 26  1  0
 24 27  2  0
 25 28  1  0
 18 29  1  0
 27 30  1  0
 25 31  2  0
 30 32  1  0
 30 33  2  0
 31 33  1  0
 11 34  2  0
 14 34  1  0
 15 34  1  0
M  END
>  <ID>  (1) 
conformer_0

$$$$
