
     RDKit          3D

 35 42  0  0  0  0  0  0  0  0999 V2000
   28.6105   27.4128   31.7823 C   0  0  0  0  0  0  0  0  0  0  0  0
   29.7990   27.3230   32.1195 C   0  0  0  0  0  0  0  0  0  0  0  0
   30.0986   27.4722   33.5472 C   0  0  0  0  0  0  0  0  0  0  0  0
   31.3729   27.4246   34.0822 C   0  0  0  0  0  0  0  0  0  0  0  0
   28.9924   27.7508   34.3674 C   0  0  0  0  0  0  0  0  0  0  0  0
   31.7212   27.8537   35.3245 N   0  0  0  0  0  0  0  0  0  0  0  0
   30.7717   28.0612   36.3229 C   0  0  0  0  0  0  0  0  0  0  0  0
   30.8776   27.0057   31.2720 N   0  0  0  0  0  0  0  0  0  0  0  0
   28.4163   27.0491   30.3302 N   0  0  0  0  0  0  0  0  0  0  0  0
   27.6717   27.8256   33.8252 C   0  0  0  0  0  0  0  0  0  0  0  0
   32.2079   27.1126   31.5332 C   0  0  0  0  0  0  0  0  0  0  0  0
   29.0084   25.7867   29.9893 C   0  0  0  0  0  0  0  0  0  0  0  0
   32.4707   27.2022   33.1059 C   0  0  0  0  0  0  0  0  0  0  0  0
   27.4512   27.7164   32.5456 N   0  0  0  0  0  0  0  0  0  0  0  0
   33.0557   27.5250   35.6563 C   0  0  0  0  0  0  0  0  0  0  0  0
   31.3469   28.5111   37.6554 C   0  0  0  0  0  0  0  0  0  0  0  0
   30.7945   29.1002   38.5591 C   0  0  0  0  0  0  0  0  0  0  0  0
   33.1076   27.0671   30.8198 O   0  0  0  0  0  0  0  0  0  0  0  0
   32.7509   28.0503   38.0146 C   0  0  0  0  0  0  0  0  0  0  0  0
   34.0049   27.1268   34.6879 C   0  0  0  0  0  0  0  0  0  0  0  0
   35.4163   27.2009   35.1142 C   0  0  0  0  0  0  0  0  0  0  0  0
   33.7436   26.9489   33.5463 C   0  0  0  0  0  0  0  0  0  0  0  0
   30.5235   26.3621   30.0013 C   0  0  0  0  0  0  0  0  0  0  0  0
   29.5280   27.9910   35.9273 C   0  0  0  0  0  0  0  0  0  0  0  0
   33.0582   28.5782   39.2522 C   0  0  0  0  0  0  0  0  0  0  0  0
   33.5540   27.6411   36.9881 C   0  0  0  0  0  0  0  0  0  0  0  0
   31.7280   29.3343   39.8299 S   0  0  0  0  0  0  0  0  0  0  0  0
   34.3454   28.3780   40.0728 C   0  0  0  0  0  0  0  0  0  0  0  0
   34.3146   27.7293   41.0645 O   0  0  0  0  0  0  0  0  0  0  0  0
   34.2944   28.4124   42.4116 C   0  0  0  0  0  0  0  0  0  0  0  0
   35.2095   29.2038   42.6877 O   0  0  0  0  0  0  0  0  0  0  0  0
   35.0351   27.5297   37.2616 C   0  0  0  0  0  0  0  0  0  0  0  0
   36.3656   26.8710   33.9993 O   0  0  0  0  0  0  0  0  0  0  0  0
   35.8412   27.3379   36.3171 C   0  0  0  0  0  0  0  0  0  0  0  0
   33.2689   27.9436   43.3622 C   0  0  0  0  0  0  0  0  0  0  0  0
  1  2  2  0
  2  3  1  0
  3  4  1  0
  3  5  2  0
  4  6  1  0
  6  7  1  0
  2  8  1  0
  1  9  1  0
  5 10  1  0
  8 11  1  0
  9 12  1  0
  4 13  2  0
 11 13  1  0
  1 14  1  0
 10 14  2  0
  6 15  1  0
  7 16  1  0
 16 17  2  0
 11 18  2  0
 16 19  1  0
 15 20  1  0
 20 21  2  0
 13 22  1  0
 20 22  1  0
  8 23  1  0
 12 23  1  0
  5 24  1  0
  7 24  2  0
 19 25  2  0
 15 26  2  0
 19 26  1  0
 17 27  1  0
 25 27  1  0
 25 28  1  0
 28 29  1  0
 29 30  1  0
 30 31  2  0
 26 32  1  0
 21 33  1  0
 21 34  1  0
 32 34  2  0
 30 35  1  0
M  END
>  <ID>  (1) 
conformer_0

$$$$
