
     RDKit          3D

 34 40  0  0  0  0  0  0  0  0999 V2000
   31.6785   26.7666   31.6514 N   0  0  0  0  0  0  0  0  0  0  0  0
   30.6217   26.9208   31.8836 C   0  0  0  0  0  0  0  0  0  0  0  0
   30.2598   27.2013   33.2551 C   0  0  0  0  0  0  0  0  0  0  0  0
   31.3558   27.3909   33.9091 C   0  0  0  0  0  0  0  0  0  0  0  0
   32.4086   26.9941   32.9204 N   0  0  0  0  0  0  0  0  0  0  0  0
   29.3523   26.7341   30.9490 C   0  0  0  0  0  0  0  0  0  0  0  0
   28.8942   27.4334   33.7445 C   0  0  0  0  0  0  0  0  0  0  0  0
   28.6312   27.7681   35.0834 C   0  0  0  0  0  0  0  0  0  0  0  0
   31.8681   27.5664   35.2627 C   0  0  0  0  0  0  0  0  0  0  0  0
   31.0663   27.7342   36.2112 N   0  0  0  0  0  0  0  0  0  0  0  0
   33.7640   27.0599   33.1610 C   0  0  0  0  0  0  0  0  0  0  0  0
   29.6307   27.8606   36.1085 C   0  0  0  0  0  0  0  0  0  0  0  0
   28.1272   26.9707   31.4410 N   0  0  0  0  0  0  0  0  0  0  0  0
   33.2687   27.5299   35.5236 C   0  0  0  0  0  0  0  0  0  0  0  0
   34.6256   27.2664   32.2302 C   0  0  0  0  0  0  0  0  0  0  0  0
   29.1464   28.4907   37.2594 N   0  0  0  0  0  0  0  0  0  0  0  0
   33.7646   27.7176   36.8891 C   0  0  0  0  0  0  0  0  0  0  0  0
   29.4817   26.4135   29.7989 O   0  0  0  0  0  0  0  0  0  0  0  0
   27.4591   28.0365   35.3976 N   0  0  0  0  0  0  0  0  0  0  0  0
   34.1600   28.8912   37.3350 C   0  0  0  0  0  0  0  0  0  0  0  0
   33.7298   26.6799   37.8568 C   0  0  0  0  0  0  0  0  0  0  0  0
   27.5546   28.4534   36.8310 O   0  0  0  0  0  0  0  0  0  0  0  0
   36.0495   27.4370   32.7598 C   0  0  0  0  0  0  0  0  0  0  0  0
   34.0463   27.5282   34.5200 C   0  0  0  0  0  0  0  0  0  0  0  0
   34.2838   30.0185   36.4047 F   0  0  0  0  0  0  0  0  0  0  0  0
   34.4924   29.1126   38.6276 C   0  0  0  0  0  0  0  0  0  0  0  0
   33.3003   25.4151   37.4265 F   0  0  0  0  0  0  0  0  0  0  0  0
   34.4121   28.1749   39.5462 C   0  0  0  0  0  0  0  0  0  0  0  0
   33.9609   26.9374   39.1472 C   0  0  0  0  0  0  0  0  0  0  0  0
   27.8628   27.3358   32.7889 C   0  0  0  0  0  0  0  0  0  0  0  0
   35.6347   27.5959   34.8639 C   0  0  0  0  0  0  0  0  0  0  0  0
   34.6771   28.3868   40.8089 F   0  0  0  0  0  0  0  0  0  0  0  0
   36.4351   27.4918   33.9006 C   0  0  0  0  0  0  0  0  0  0  0  0
   33.7308   26.0218   40.0753 F   0  0  0  0  0  0  0  0  0  0  0  0
  1  2  2  0
  2  3  1  0
  3  4  2  0
  1  5  1  0
  4  5  1  0
  2  6  1  0
  3  7  1  0
  7  8  1  0
  4  9  1  0
  9 10  2  0
  5 11  1  0
  8 12  1  0
 10 12  1  0
  6 13  1  0
  9 14  1  0
 11 15  2  0
 12 16  2  0
 14 17  1  0
  6 18  2  0
  8 19  2  0
 17 20  2  0
 17 21  1  0
 16 22  1  0
 19 22  1  0
 15 23  1  0
 11 24  1  0
 14 24  2  0
 20 25  1  0
 20 26  1  0
 21 27  1  0
 26 28  2  0
 21 29  2  0
 28 29  1  0
  7 30  1  0
 13 30  1  0
 24 31  1  0
 28 32  1  0
 23 33  2  0
 31 33  1  0
 29 34  1  0
M  END
>  <ID>  (1) 
conformer_0

$$$$
