
     RDKit          3D

 12 13  0  0  0  0  0  0  0  0999 V2000
   28.2086   27.3750   32.1648 N   0  0  0  0  0  0  0  0  0  0  0  0
   27.8303   27.7061   33.2330 C   0  0  0  0  0  0  0  0  0  0  0  0
   29.5583   27.2614   32.1157 C   0  0  0  0  0  0  0  0  0  0  0  0
   30.3138   26.8022   30.9562 N   0  0  0  0  0  0  0  0  0  0  0  0
   30.1847   27.4266   33.3578 C   0  0  0  0  0  0  0  0  0  0  0  0
   31.6429   26.7926   31.0659 C   0  0  0  0  0  0  0  0  0  0  0  0
   29.4901   27.7427   34.5413 C   0  0  0  0  0  0  0  0  0  0  0  0
   30.2131   27.9522   35.7264 N   0  0  0  0  0  0  0  0  0  0  0  0
   31.6633   27.3333   33.5004 N   0  0  0  0  0  0  0  0  0  0  0  0
   32.3100   27.0770   32.4721 C   0  0  0  0  0  0  0  0  0  0  0  0
   28.2050   27.8670   34.4368 N   0  0  0  0  0  0  0  0  0  0  0  0
   32.3613   26.4431   29.9230 C   0  0  0  0  0  0  0  0  0  0  0  0
  1  2  2  0
  1  3  1  0
  3  4  1  0
  3  5  2  0
  4  6  1  0
  5  7  1  0
  7  8  1  0
  5  9  1  0
  6 10  2  0
  9 10  2  0
  2 11  1  0
  7 11  2  0
  6 12  1  0
M  END
>  <ID>  (1) 
conformer_0

$$$$
