
     RDKit          3D

 18 20  0  0  0  0  0  0  0  0999 V2000
   28.3861   26.7246   31.1572 N   0  0  0  0  0  0  0  0  0  0  0  0
   29.6546   26.5503   31.0078 C   0  0  0  0  0  0  0  0  0  0  0  0
   30.3045   26.1377   29.9126 N   0  0  0  0  0  0  0  0  0  0  0  0
   28.0206   27.2763   32.3881 C   0  0  0  0  0  0  0  0  0  0  0  0
   30.5317   26.8926   32.1440 C   0  0  0  0  0  0  0  0  0  0  0  0
   29.7074   25.8926   28.7144 C   0  0  0  0  0  0  0  0  0  0  0  0
   30.1154   27.2883   33.3219 C   0  0  0  0  0  0  0  0  0  0  0  0
   30.8844   27.6049   34.3676 N   0  0  0  0  0  0  0  0  0  0  0  0
   31.7435   26.2285   30.0793 C   0  0  0  0  0  0  0  0  0  0  0  0
   32.2043   27.2330   34.1005 C   0  0  0  0  0  0  0  0  0  0  0  0
   26.6140   27.5223   32.5299 O   0  0  0  0  0  0  0  0  0  0  0  0
   33.1042   27.4568   35.1639 N   0  0  0  0  0  0  0  0  0  0  0  0
   34.5366   27.0474   35.0872 C   0  0  0  0  0  0  0  0  0  0  0  0
   32.8213   26.8568   32.9180 N   0  0  0  0  0  0  0  0  0  0  0  0
   31.7494   26.7550   31.5493 C   0  0  0  0  0  0  0  0  0  0  0  0
   35.3180   28.3186   34.5924 C   0  0  0  0  0  0  0  0  0  0  0  0
   28.8049   27.5627   33.5173 C   0  0  0  0  0  0  0  0  0  0  0  0
   35.0376   27.0447   36.3928 C   0  0  0  0  0  0  0  0  0  0  0  0
  1  2  2  0
  2  3  1  0
  1  4  1  0
  2  5  1  0
  3  6  1  0
  5  7  1  0
  7  8  2  0
  3  9  1  0
  8 10  1  0
  4 11  1  0
 10 12  1  0
 12 13  1  0
 10 14  2  0
  5 15  1  0
  9 15  2  0
 14 15  1  0
 13 16  1  0
  4 17  2  0
  7 17  1  0
 13 18  1  0
M  END
>  <ID>  (1) 
conformer_0

$$$$
