
     RDKit          3D

 15 17  0  0  0  0  0  0  0  0999 V2000
   28.6609   26.6530   31.1472 N   0  0  0  0  0  0  0  0  0  0  0  0
   28.3631   27.1789   32.2422 C   0  0  0  0  0  0  0  0  0  0  0  0
   29.2684   27.4341   33.2715 N   0  0  0  0  0  0  0  0  0  0  0  0
   29.9698   26.4555   30.7353 C   0  0  0  0  0  0  0  0  0  0  0  0
   30.6111   27.1982   33.0179 C   0  0  0  0  0  0  0  0  0  0  0  0
   28.8915   27.9053   34.5545 C   0  0  0  0  0  0  0  0  0  0  0  0
   30.3442   26.0282   29.6239 N   0  0  0  0  0  0  0  0  0  0  0  0
   31.6237   27.5302   33.9754 C   0  0  0  0  0  0  0  0  0  0  0  0
   31.6884   26.0395   29.2901 C   0  0  0  0  0  0  0  0  0  0  0  0
   27.1850   27.7299   32.3065 O   0  0  0  0  0  0  0  0  0  0  0  0
   30.9481   26.7985   31.7107 C   0  0  0  0  0  0  0  0  0  0  0  0
   32.8415   27.5589   33.6316 N   0  0  0  0  0  0  0  0  0  0  0  0
   32.2808   26.6483   31.1985 C   0  0  0  0  0  0  0  0  0  0  0  0
   32.6342   26.3467   30.0928 C   0  0  0  0  0  0  0  0  0  0  0  0
   33.2603   27.1040   32.3610 C   0  0  0  0  0  0  0  0  0  0  0  0
  1  2  1  0
  2  3  1  0
  1  4  1  0
  3  5  1  0
  3  6  1  0
  4  7  2  0
  5  8  1  0
  7  9  1  0
  2 10  2  0
  4 11  1  0
  5 11  2  0
  8 12  2  0
 11 13  1  0
  9 14  2  0
 13 14  1  0
 12 15  1  0
 13 15  2  0
M  END
>  <ID>  (1) 
conformer_0

$$$$
