
     RDKit          3D

 21 25  0  0  0  0  0  0  0  0999 V2000
   31.6785   26.7666   31.6514 N   0  0  0  0  0  0  0  0  0  0  0  0
   30.6217   26.9208   31.8836 C   0  0  0  0  0  0  0  0  0  0  0  0
   30.2598   27.2013   33.2551 C   0  0  0  0  0  0  0  0  0  0  0  0
   31.3558   27.3909   33.9091 C   0  0  0  0  0  0  0  0  0  0  0  0
   32.4086   26.9941   32.9204 N   0  0  0  0  0  0  0  0  0  0  0  0
   29.3523   26.7341   30.9490 C   0  0  0  0  0  0  0  0  0  0  0  0
   28.8942   27.4334   33.7445 C   0  0  0  0  0  0  0  0  0  0  0  0
   28.6312   27.7681   35.0834 C   0  0  0  0  0  0  0  0  0  0  0  0
   31.8681   27.5664   35.2627 C   0  0  0  0  0  0  0  0  0  0  0  0
   31.0663   27.7342   36.2112 N   0  0  0  0  0  0  0  0  0  0  0  0
   33.7640   27.0599   33.1610 C   0  0  0  0  0  0  0  0  0  0  0  0
   29.6307   27.8606   36.1085 C   0  0  0  0  0  0  0  0  0  0  0  0
   28.1272   26.9707   31.4410 N   0  0  0  0  0  0  0  0  0  0  0  0
   33.2687   27.5299   35.5236 C   0  0  0  0  0  0  0  0  0  0  0  0
   29.0841   27.9763   37.4772 N   0  0  0  0  0  0  0  0  0  0  0  0
   27.6561   28.1167   37.0219 N   0  0  0  0  0  0  0  0  0  0  0  0
   27.4932   27.9239   35.7739 C   0  0  0  0  0  0  0  0  0  0  0  0
   34.1735   27.4459   34.4641 C   0  0  0  0  0  0  0  0  0  0  0  0
   29.4924   26.2215   29.7637 O   0  0  0  0  0  0  0  0  0  0  0  0
   35.4553   26.9103   34.8219 C   0  0  0  0  0  0  0  0  0  0  0  0
   27.9000   27.3521   32.7701 C   0  0  0  0  0  0  0  0  0  0  0  0
  1  2  2  0
  2  3  1  0
  3  4  2  0
  1  5  1  0
  4  5  1  0
  2  6  1  0
  3  7  1  0
  7  8  1  0
  4  9  1  0
  9 10  2  0
  5 11  1  0
  8 12  1  0
 10 12  1  0
  6 13  1  0
  9 14  1  0
 12 15  2  0
 15 16  1  0
  8 17  1  0
 16 17  2  0
 11 18  1  0
 14 18  1  0
  6 19  2  0
 18 20  1  0
  7 21  2  0
 13 21  1  0
M  END
>  <ID>  (1) 
conformer_0

$$$$
