
     RDKit          3D

 32 36  0  0  0  0  0  0  0  0999 V2000
   28.3861   26.7246   31.1572 N   0  0  0  0  0  0  0  0  0  0  0  0
   28.5250   27.0962   32.2961 C   0  0  0  0  0  0  0  0  0  0  0  0
   29.7250   27.2322   32.9970 C   0  0  0  0  0  0  0  0  0  0  0  0
   27.3920   27.3544   33.1647 C   0  0  0  0  0  0  0  0  0  0  0  0
   29.7337   27.6923   34.3255 C   0  0  0  0  0  0  0  0  0  0  0  0
   29.4507   26.4017   30.3738 C   0  0  0  0  0  0  0  0  0  0  0  0
   31.0625   27.7700   34.9827 C   0  0  0  0  0  0  0  0  0  0  0  0
   31.1955   28.1666   36.2136 C   0  0  0  0  0  0  0  0  0  0  0  0
   32.2021   27.4832   34.1569 C   0  0  0  0  0  0  0  0  0  0  0  0
   30.0164   28.4645   37.0541 C   0  0  0  0  0  0  0  0  0  0  0  0
   30.6961   26.6155   30.8942 N   0  0  0  0  0  0  0  0  0  0  0  0
   32.5112   28.1877   36.8274 C   0  0  0  0  0  0  0  0  0  0  0  0
   32.7317   28.5507   38.2023 C   0  0  0  0  0  0  0  0  0  0  0  0
   33.5223   27.6243   36.2961 C   0  0  0  0  0  0  0  0  0  0  0  0
   34.8418   27.6188   36.7696 C   0  0  0  0  0  0  0  0  0  0  0  0
   29.1886   27.6731   37.4323 O   0  0  0  0  0  0  0  0  0  0  0  0
   31.8874   26.4166   30.0358 C   0  0  0  0  0  0  0  0  0  0  0  0
   32.2264   27.0031   32.8491 C   0  0  0  0  0  0  0  0  0  0  0  0
   27.8019   27.9655   34.3554 N   0  0  0  0  0  0  0  0  0  0  0  0
   33.9960   28.5316   38.7826 C   0  0  0  0  0  0  0  0  0  0  0  0
   30.9579   26.9380   32.1694 C   0  0  0  0  0  0  0  0  0  0  0  0
   29.6535   29.8343   37.0711 O   0  0  0  0  0  0  0  0  0  0  0  0
   33.4418   27.0073   34.9410 C   0  0  0  0  0  0  0  0  0  0  0  0
   34.1827   29.0415   40.2036 C   0  0  0  0  0  0  0  0  0  0  0  0
   35.9599   27.0980   36.0565 O   0  0  0  0  0  0  0  0  0  0  0  0
   28.8136   28.0552   34.8187 N   0  0  0  0  0  0  0  0  0  0  0  0
   34.8096   29.9946   40.5413 O   0  0  0  0  0  0  0  0  0  0  0  0
   33.5418   28.2506   41.1659 N   0  0  0  0  0  0  0  0  0  0  0  0
   33.6060   28.4189   42.5714 C   0  0  0  0  0  0  0  0  0  0  0  0
   35.0572   28.0878   38.0961 C   0  0  0  0  0  0  0  0  0  0  0  0
   33.5586   29.4916   43.1673 C   0  0  0  0  0  0  0  0  0  0  0  0
   33.6102   27.1641   43.2470 O   0  0  0  0  0  0  0  0  0  0  0  0
  1  2  1  0
  2  3  2  0
  2  4  1  0
  3  5  1  0
  1  6  2  0
  5  7  1  0
  7  8  2  0
  7  9  1  0
  8 10  1  0
  6 11  1  0
  8 12  1  0
 12 13  1  0
 12 14  2  0
 14 15  1  0
 10 16  2  0
 11 17  1  0
  9 18  1  0
  4 19  2  0
 13 20  2  0
  3 21  1  0
 11 21  1  0
 18 21  2  0
 10 22  1  0
  9 23  1  0
 14 23  1  0
 20 24  1  0
 15 25  1  0
  5 26  2  0
 19 26  1  0
 24 27  2  0
 24 28  1  0
 28 29  1  0
 15 30  2  0
 20 30  1  0
 29 31  1  0
 29 32  2  0
M  END
>  <ID>  (1) 
conformer_0

$$$$
