
     RDKit          3D

 38 45  0  0  0  0  0  0  0  0999 V2000
   28.3861   26.7246   31.1572 N   0  0  0  0  0  0  0  0  0  0  0  0
   28.5250   27.0962   32.2961 C   0  0  0  0  0  0  0  0  0  0  0  0
   29.7250   27.2322   32.9970 C   0  0  0  0  0  0  0  0  0  0  0  0
   27.3920   27.3544   33.1647 C   0  0  0  0  0  0  0  0  0  0  0  0
   29.7337   27.6923   34.3255 C   0  0  0  0  0  0  0  0  0  0  0  0
   29.4507   26.4017   30.3738 C   0  0  0  0  0  0  0  0  0  0  0  0
   31.0625   27.7700   34.9827 C   0  0  0  0  0  0  0  0  0  0  0  0
   31.1955   28.1666   36.2136 C   0  0  0  0  0  0  0  0  0  0  0  0
   32.2021   27.4832   34.1569 C   0  0  0  0  0  0  0  0  0  0  0  0
   30.0164   28.4645   37.0541 C   0  0  0  0  0  0  0  0  0  0  0  0
   30.6961   26.6155   30.8942 N   0  0  0  0  0  0  0  0  0  0  0  0
   32.5112   28.1877   36.8274 C   0  0  0  0  0  0  0  0  0  0  0  0
   32.7317   28.5507   38.2023 C   0  0  0  0  0  0  0  0  0  0  0  0
   33.5223   27.6243   36.2961 C   0  0  0  0  0  0  0  0  0  0  0  0
   34.8418   27.6188   36.7696 C   0  0  0  0  0  0  0  0  0  0  0  0
   29.1886   27.6731   37.4323 O   0  0  0  0  0  0  0  0  0  0  0  0
   27.6855   28.0042   34.3553 C   0  0  0  0  0  0  0  0  0  0  0  0
   32.1991   26.9847   32.8374 C   0  0  0  0  0  0  0  0  0  0  0  0
   31.7898   26.3646   30.0047 C   0  0  0  0  0  0  0  0  0  0  0  0
   28.7074   28.0456   34.9120 N   0  0  0  0  0  0  0  0  0  0  0  0
   31.7369   29.1465   39.0366 C   0  0  0  0  0  0  0  0  0  0  0  0
   34.0464   28.6183   38.7424 C   0  0  0  0  0  0  0  0  0  0  0  0
   30.8633   26.8911   32.0664 C   0  0  0  0  0  0  0  0  0  0  0  0
   35.9656   27.0774   36.0450 O   0  0  0  0  0  0  0  0  0  0  0  0
   35.1273   28.1247   38.0132 C   0  0  0  0  0  0  0  0  0  0  0  0
   32.0586   29.5415   40.3827 C   0  0  0  0  0  0  0  0  0  0  0  0
   29.3426   26.0948   29.0186 C   0  0  0  0  0  0  0  0  0  0  0  0
   33.3314   29.5798   40.8372 C   0  0  0  0  0  0  0  0  0  0  0  0
   34.3924   29.1040   40.1067 C   0  0  0  0  0  0  0  0  0  0  0  0
   30.3462   25.8973   28.2163 C   0  0  0  0  0  0  0  0  0  0  0  0
   33.0461   26.5128   30.5622 O   0  0  0  0  0  0  0  0  0  0  0  0
   33.2414   27.0384   31.9363 C   0  0  0  0  0  0  0  0  0  0  0  0
   33.6264   30.0419   42.2848 C   0  0  0  0  0  0  0  0  0  0  0  0
   34.0432   28.9079   43.1369 C   0  0  0  0  0  0  0  0  0  0  0  0
   33.4400   27.7634   42.9337 O   0  0  0  0  0  0  0  0  0  0  0  0
   34.9255   29.0295   44.0130 O   0  0  0  0  0  0  0  0  0  0  0  0
   31.7082   26.1520   28.8126 C   0  0  0  0  0  0  0  0  0  0  0  0
   33.5155   27.1668   34.7960 C   0  0  0  0  0  0  0  0  0  0  0  0
  1  2  1  0
  2  3  2  0
  2  4  1  0
  3  5  1  0
  1  6  2  0
  5  7  1  0
  7  8  2  0
  7  9  1  0
  8 10  1  0
  6 11  1  0
  8 12  1  0
 12 13  1  0
 12 14  2  0
 14 15  1  0
 10 16  2  0
  4 17  2  0
  9 18  1  0
 11 19  1  0
  5 20  2  0
 17 20  1  0
 13 21  1  0
 13 22  2  0
  3 23  1  0
 11 23  1  0
 18 23  1  0
 15 24  1  0
 15 25  2  0
 22 25  1  0
 21 26  2  0
  6 27  1  0
 26 28  1  0
 22 29  1  0
 28 29  2  0
 27 30  2  0
 19 31  1  0
 18 32  1  0
 31 32  1  0
 28 33  1  0
 33 34  1  0
 34 35  2  0
 34 36  1  0
 19 37  2  0
 30 37  1  0
  9 38  2  0
 14 38  1  0
M  END
>  <ID>  (1) 
conformer_0

$$$$
