
     RDKit          3D

 33 39  0  0  0  0  0  0  0  0999 V2000
   28.6105   27.4128   31.7823 C   0  0  0  0  0  0  0  0  0  0  0  0
   29.7990   27.3230   32.1195 C   0  0  0  0  0  0  0  0  0  0  0  0
   30.0986   27.4722   33.5472 C   0  0  0  0  0  0  0  0  0  0  0  0
   31.3729   27.4246   34.0822 C   0  0  0  0  0  0  0  0  0  0  0  0
   28.9924   27.7508   34.3674 C   0  0  0  0  0  0  0  0  0  0  0  0
   31.7212   27.8537   35.3245 N   0  0  0  0  0  0  0  0  0  0  0  0
   30.7717   28.0612   36.3229 C   0  0  0  0  0  0  0  0  0  0  0  0
   30.8776   27.0057   31.2720 N   0  0  0  0  0  0  0  0  0  0  0  0
   28.4163   27.0491   30.3302 N   0  0  0  0  0  0  0  0  0  0  0  0
   27.6717   27.8256   33.8252 C   0  0  0  0  0  0  0  0  0  0  0  0
   32.2079   27.1126   31.5332 C   0  0  0  0  0  0  0  0  0  0  0  0
   29.0084   25.7867   29.9893 C   0  0  0  0  0  0  0  0  0  0  0  0
   32.4707   27.2022   33.1059 C   0  0  0  0  0  0  0  0  0  0  0  0
   27.4512   27.7164   32.5456 N   0  0  0  0  0  0  0  0  0  0  0  0
   33.0557   27.5250   35.6563 C   0  0  0  0  0  0  0  0  0  0  0  0
   31.3469   28.5111   37.6554 C   0  0  0  0  0  0  0  0  0  0  0  0
   30.7945   29.1002   38.5591 C   0  0  0  0  0  0  0  0  0  0  0  0
   33.1076   27.0671   30.8198 O   0  0  0  0  0  0  0  0  0  0  0  0
   32.7509   28.0503   38.0146 C   0  0  0  0  0  0  0  0  0  0  0  0
   34.0049   27.1268   34.6879 C   0  0  0  0  0  0  0  0  0  0  0  0
   35.4163   27.2009   35.1142 C   0  0  0  0  0  0  0  0  0  0  0  0
   31.3888   29.4904   39.7963 C   0  0  0  0  0  0  0  0  0  0  0  0
   32.6780   29.1560   40.0490 C   0  0  0  0  0  0  0  0  0  0  0  0
   33.6965   27.0520   33.4096 N   0  0  0  0  0  0  0  0  0  0  0  0
   33.5253   27.7385   36.9445 C   0  0  0  0  0  0  0  0  0  0  0  0
   30.4226   26.6843   29.8919 C   0  0  0  0  0  0  0  0  0  0  0  0
   33.3587   28.4241   39.1300 C   0  0  0  0  0  0  0  0  0  0  0  0
   35.0784   27.5531   37.1608 C   0  0  0  0  0  0  0  0  0  0  0  0
   33.2407   29.3988   41.3136 C   0  0  0  0  0  0  0  0  0  0  0  0
   33.3562   28.3313   42.2924 C   0  0  0  0  0  0  0  0  0  0  0  0
   33.1830   27.2488   42.0231 O   0  0  0  0  0  0  0  0  0  0  0  0
   34.0482   28.5705   43.4487 O   0  0  0  0  0  0  0  0  0  0  0  0
   35.7804   27.3816   36.3395 C   0  0  0  0  0  0  0  0  0  0  0  0
  1  2  2  0
  2  3  1  0
  3  4  1  0
  3  5  2  0
  4  6  1  0
  6  7  1  0
  2  8  1  0
  1  9  1  0
  5 10  1  0
  8 11  1  0
  9 12  1  0
  4 13  2  0
 11 13  1  0
  1 14  1  0
 10 14  2  0
  6 15  1  0
  7 16  1  0
 16 17  2  0
 11 18  2  0
 16 19  1  0
 15 20  1  0
 20 21  2  0
 17 22  1  0
 22 23  2  0
 13 24  1  0
 20 24  1  0
 15 25  2  0
 19 25  1  0
  8 26  1  0
 12 26  1  0
 19 27  2  0
 23 27  1  0
 25 28  1  0
 23 29  1  0
 29 30  1  0
 30 31  2  0
 30 32  1  0
 21 33  1  0
 28 33  2  0
M  END
>  <ID>  (1) 
conformer_0

$$$$
