
     RDKit          3D

 35 43  0  0  0  0  0  0  0  0999 V2000
   33.1949   27.0789   31.7935 C   0  0  0  0  0  0  0  0  0  0  0  0
   33.7636   27.3244   32.7670 C   0  0  0  0  0  0  0  0  0  0  0  0
   31.6980   26.9728   31.8957 C   0  0  0  0  0  0  0  0  0  0  0  0
   31.1867   27.0425   33.1756 C   0  0  0  0  0  0  0  0  0  0  0  0
   33.3201   27.3045   34.1004 C   0  0  0  0  0  0  0  0  0  0  0  0
   29.6778   26.9060   33.3010 N   0  0  0  0  0  0  0  0  0  0  0  0
   34.1234   27.5692   35.2957 C   0  0  0  0  0  0  0  0  0  0  0  0
   33.5832   27.9175   36.3965 C   0  0  0  0  0  0  0  0  0  0  0  0
   29.1090   27.5059   34.3296 C   0  0  0  0  0  0  0  0  0  0  0  0
   28.8602   26.4464   32.2350 C   0  0  0  0  0  0  0  0  0  0  0  0
   32.2185   27.8690   36.5086 N   0  0  0  0  0  0  0  0  0  0  0  0
   35.5197   27.5699   35.0881 C   0  0  0  0  0  0  0  0  0  0  0  0
   36.2012   27.7801   36.3724 C   0  0  0  0  0  0  0  0  0  0  0  0
   31.9330   27.3429   34.3251 C   0  0  0  0  0  0  0  0  0  0  0  0
   29.6072   27.6422   35.5972 C   0  0  0  0  0  0  0  0  0  0  0  0
   34.4552   28.1262   37.4811 C   0  0  0  0  0  0  0  0  0  0  0  0
   31.6110   28.0458   37.7935 C   0  0  0  0  0  0  0  0  0  0  0  0
   33.7610   28.5679   38.7928 C   0  0  0  0  0  0  0  0  0  0  0  0
   34.4697   28.8410   39.8280 N   0  0  0  0  0  0  0  0  0  0  0  0
   29.0635   27.7447   36.8393 C   0  0  0  0  0  0  0  0  0  0  0  0
   27.8277   27.9474   34.1116 C   0  0  0  0  0  0  0  0  0  0  0  0
   35.8178   28.1910   37.4199 C   0  0  0  0  0  0  0  0  0  0  0  0
   27.7514   28.2677   36.7099 C   0  0  0  0  0  0  0  0  0  0  0  0
   32.4581   28.3731   38.9215 C   0  0  0  0  0  0  0  0  0  0  0  0
   27.7411   27.0550   32.0382 N   0  0  0  0  0  0  0  0  0  0  0  0
   30.2357   27.9097   38.0508 C   0  0  0  0  0  0  0  0  0  0  0  0
   31.2007   27.2932   35.4652 C   0  0  0  0  0  0  0  0  0  0  0  0
   27.1019   27.6130   33.0650 N   0  0  0  0  0  0  0  0  0  0  0  0
   32.1946   28.2643   40.2526 N   0  0  0  0  0  0  0  0  0  0  0  0
   33.3791   28.7443   40.8233 C   0  0  0  0  0  0  0  0  0  0  0  0
   33.4784   29.0590   42.2034 C   0  0  0  0  0  0  0  0  0  0  0  0
   33.7973   27.9460   43.0739 C   0  0  0  0  0  0  0  0  0  0  0  0
   34.5163   28.0722   44.0439 O   0  0  0  0  0  0  0  0  0  0  0  0
   33.2506   26.7858   42.7020 O   0  0  0  0  0  0  0  0  0  0  0  0
   27.0247   28.3682   35.4644 C   0  0  0  0  0  0  0  0  0  0  0  0
  1  2  2  0
  1  3  1  0
  3  4  2  0
  2  5  1  0
  4  6  1  0
  5  7  1  0
  7  8  1  0
  6  9  1  0
  6 10  1  0
  8 11  1  0
  7 12  2  0
 12 13  1  0
  4 14  1  0
  5 14  2  0
  9 15  1  0
  8 16  2  0
 11 17  1  0
 16 18  1  0
 18 19  1  0
 15 20  2  0
  9 21  2  0
 13 22  2  0
 16 22  1  0
 20 23  1  0
 17 24  1  0
 18 24  1  0
 10 25  2  0
 17 26  2  0
 20 26  1  0
 11 27  1  0
 14 27  1  0
 15 27  1  0
 21 28  1  0
 25 28  1  0
 24 29  2  0
 19 30  2  0
 29 30  1  0
 30 31  1  0
 31 32  1  0
 32 33  2  0
 32 34  1  0
 21 35  1  0
 23 35  2  0
M  END
>  <ID>  (1) 
conformer_0

$$$$
