
     RDKit          3D

 13 14  0  0  0  0  0  0  0  0999 V2000
   32.6601   26.6096   34.4498 C   0  0  0  0  0  0  0  0  0  0  0  0
   31.8120   27.1185   33.7763 C   0  0  0  0  0  0  0  0  0  0  0  0
   31.8105   27.0986   32.3879 C   0  0  0  0  0  0  0  0  0  0  0  0
   30.5054   27.3862   34.2447 C   0  0  0  0  0  0  0  0  0  0  0  0
   34.0035   26.6152   34.0058 C   0  0  0  0  0  0  0  0  0  0  0  0
   29.4623   27.6168   33.4939 C   0  0  0  0  0  0  0  0  0  0  0  0
   30.8349   27.2972   31.4868 N   0  0  0  0  0  0  0  0  0  0  0  0
   34.1721   26.6125   32.4968 C   0  0  0  0  0  0  0  0  0  0  0  0
   28.0945   27.9206   33.9515 C   0  0  0  0  0  0  0  0  0  0  0  0
   33.1318   26.9952   31.7375 C   0  0  0  0  0  0  0  0  0  0  0  0
   27.1920   27.9332   33.0533 O   0  0  0  0  0  0  0  0  0  0  0  0
   27.8119   28.3994   35.0864 O   0  0  0  0  0  0  0  0  0  0  0  0
   29.4921   27.6285   31.9961 C   0  0  0  0  0  0  0  0  0  0  0  0
  1  2  1  0
  2  3  2  0
  2  4  1  0
  1  5  2  0
  4  6  2  0
  3  7  1  0
  5  8  1  0
  6  9  1  0
  3 10  1  0
  8 10  2  0
  9 11  1  0
  9 12  2  0
  6 13  1  0
  7 13  2  0
M  END
>  <ID>  (1) 
conformer_0

$$$$
