
     RDKit          3D

 18 21  0  0  0  0  0  0  0  0999 V2000
   31.6785   26.7666   31.6514 N   0  0  0  0  0  0  0  0  0  0  0  0
   30.6217   26.9208   31.8836 C   0  0  0  0  0  0  0  0  0  0  0  0
   30.2598   27.2013   33.2551 C   0  0  0  0  0  0  0  0  0  0  0  0
   31.3558   27.3909   33.9091 C   0  0  0  0  0  0  0  0  0  0  0  0
   32.4086   26.9941   32.9204 N   0  0  0  0  0  0  0  0  0  0  0  0
   29.3523   26.7341   30.9490 C   0  0  0  0  0  0  0  0  0  0  0  0
   28.8942   27.4334   33.7445 C   0  0  0  0  0  0  0  0  0  0  0  0
   28.6312   27.7681   35.0834 C   0  0  0  0  0  0  0  0  0  0  0  0
   31.8681   27.5664   35.2627 C   0  0  0  0  0  0  0  0  0  0  0  0
   31.0663   27.7342   36.2112 N   0  0  0  0  0  0  0  0  0  0  0  0
   33.7640   27.0599   33.1610 C   0  0  0  0  0  0  0  0  0  0  0  0
   29.6307   27.8606   36.1085 C   0  0  0  0  0  0  0  0  0  0  0  0
   28.1272   26.9707   31.4410 N   0  0  0  0  0  0  0  0  0  0  0  0
   29.0470   28.0437   37.4556 N   0  0  0  0  0  0  0  0  0  0  0  0
   28.0085   27.3433   32.7968 C   0  0  0  0  0  0  0  0  0  0  0  0
   27.6301   28.1295   36.9080 N   0  0  0  0  0  0  0  0  0  0  0  0
   29.5220   26.3987   29.7738 N   0  0  0  0  0  0  0  0  0  0  0  0
   27.4531   27.9154   35.6747 C   0  0  0  0  0  0  0  0  0  0  0  0
  1  2  2  0
  2  3  1  0
  3  4  2  0
  1  5  1  0
  4  5  1  0
  2  6  1  0
  3  7  1  0
  7  8  1  0
  4  9  1  0
  9 10  2  0
  5 11  1  0
  8 12  1  0
 10 12  1  0
  6 13  1  0
 12 14  2  0
  7 15  1  0
 13 15  2  0
 14 16  1  0
  6 17  1  0
  8 18  2  0
 16 18  2  0
M  END
>  <ID>  (1) 
conformer_0

$$$$
