
     RDKit          3D

 20 24  0  0  0  0  0  0  0  0999 V2000
   28.6105   27.4128   31.7823 C   0  0  0  0  0  0  0  0  0  0  0  0
   29.7990   27.3230   32.1195 C   0  0  0  0  0  0  0  0  0  0  0  0
   30.0986   27.4722   33.5472 C   0  0  0  0  0  0  0  0  0  0  0  0
   31.3729   27.4246   34.0822 C   0  0  0  0  0  0  0  0  0  0  0  0
   28.9924   27.7508   34.3674 C   0  0  0  0  0  0  0  0  0  0  0  0
   31.7212   27.8537   35.3245 N   0  0  0  0  0  0  0  0  0  0  0  0
   30.7717   28.0612   36.3229 C   0  0  0  0  0  0  0  0  0  0  0  0
   30.8776   27.0057   31.2720 N   0  0  0  0  0  0  0  0  0  0  0  0
   28.4163   27.0491   30.3302 N   0  0  0  0  0  0  0  0  0  0  0  0
   27.6717   27.8256   33.8252 C   0  0  0  0  0  0  0  0  0  0  0  0
   32.2079   27.1126   31.5332 C   0  0  0  0  0  0  0  0  0  0  0  0
   29.2983   26.0653   29.7993 C   0  0  0  0  0  0  0  0  0  0  0  0
   30.5699   26.3248   30.1333 C   0  0  0  0  0  0  0  0  0  0  0  0
   32.4678   27.1645   33.0827 C   0  0  0  0  0  0  0  0  0  0  0  0
   33.0469   27.7635   35.6291 C   0  0  0  0  0  0  0  0  0  0  0  0
   27.4828   27.7464   32.5425 N   0  0  0  0  0  0  0  0  0  0  0  0
   34.0628   27.4497   34.8256 C   0  0  0  0  0  0  0  0  0  0  0  0
   33.3276   28.1074   36.9289 O   0  0  0  0  0  0  0  0  0  0  0  0
   33.8439   27.2545   33.4750 C   0  0  0  0  0  0  0  0  0  0  0  0
   29.3900   27.8073   35.8483 C   0  0  0  0  0  0  0  0  0  0  0  0
  1  2  2  0
  2  3  1  0
  3  4  1  0
  3  5  2  0
  4  6  1  0
  6  7  1  0
  2  8  1  0
  1  9  1  0
  5 10  1  0
  8 11  1  0
  9 12  1  0
  8 13  1  0
 12 13  2  0
  4 14  2  0
 11 14  1  0
  6 15  1  0
  1 16  1  0
 10 16  2  0
 15 17  1  0
 15 18  2  0
 14 19  1  0
 17 19  2  0
  5 20  1  0
  7 20  1  0
M  END
>  <ID>  (1) 
conformer_0

$$$$
