
     RDKit          3D

 28 32  0  0  0  0  0  0  0  0999 V2000
   28.3861   26.7246   31.1572 N   0  0  0  0  0  0  0  0  0  0  0  0
   28.5250   27.0962   32.2961 C   0  0  0  0  0  0  0  0  0  0  0  0
   29.7250   27.2322   32.9970 C   0  0  0  0  0  0  0  0  0  0  0  0
   27.3920   27.3544   33.1647 C   0  0  0  0  0  0  0  0  0  0  0  0
   29.7337   27.6923   34.3255 C   0  0  0  0  0  0  0  0  0  0  0  0
   29.4507   26.4017   30.3738 C   0  0  0  0  0  0  0  0  0  0  0  0
   31.0625   27.7700   34.9827 C   0  0  0  0  0  0  0  0  0  0  0  0
   31.1955   28.1666   36.2136 C   0  0  0  0  0  0  0  0  0  0  0  0
   32.2021   27.4832   34.1569 C   0  0  0  0  0  0  0  0  0  0  0  0
   30.0164   28.4645   37.0541 C   0  0  0  0  0  0  0  0  0  0  0  0
   30.6961   26.6155   30.8942 N   0  0  0  0  0  0  0  0  0  0  0  0
   32.5112   28.1877   36.8274 C   0  0  0  0  0  0  0  0  0  0  0  0
   32.7317   28.5507   38.2023 C   0  0  0  0  0  0  0  0  0  0  0  0
   28.5915   28.0087   34.8688 C   0  0  0  0  0  0  0  0  0  0  0  0
   29.1257   27.5312   37.3498 O   0  0  0  0  0  0  0  0  0  0  0  0
   33.4570   27.4888   34.7176 C   0  0  0  0  0  0  0  0  0  0  0  0
   33.6596   27.9146   36.0324 C   0  0  0  0  0  0  0  0  0  0  0  0
   32.0940   27.1085   32.7468 N   0  0  0  0  0  0  0  0  0  0  0  0
   30.8975   27.0058   32.2196 C   0  0  0  0  0  0  0  0  0  0  0  0
   33.1069   29.7494   38.6045 C   0  0  0  0  0  0  0  0  0  0  0  0
   32.8116   27.5747   39.1801 C   0  0  0  0  0  0  0  0  0  0  0  0
   33.3597   30.1471   39.8853 C   0  0  0  0  0  0  0  0  0  0  0  0
   33.3261   29.1683   40.8775 C   0  0  0  0  0  0  0  0  0  0  0  0
   33.0524   27.8696   40.5883 C   0  0  0  0  0  0  0  0  0  0  0  0
   33.0490   26.8849   41.5754 O   0  0  0  0  0  0  0  0  0  0  0  0
   33.5054   29.4306   42.1755 O   0  0  0  0  0  0  0  0  0  0  0  0
   29.2580   26.1852   29.1068 N   0  0  0  0  0  0  0  0  0  0  0  0
   27.4403   27.9465   34.3027 C   0  0  0  0  0  0  0  0  0  0  0  0
  1  2  1  0
  2  3  2  0
  2  4  1  0
  3  5  1  0
  1  6  2  0
  5  7  1  0
  7  8  2  0
  7  9  1  0
  8 10  1  0
  6 11  1  0
  8 12  1  0
 12 13  1  0
  5 14  2  0
 10 15  1  0
  9 16  2  0
 12 17  2  0
 16 17  1  0
  9 18  1  0
  3 19  1  0
 11 19  2  0
 18 19  1  0
 13 20  2  0
 13 21  1  0
 20 22  1  0
 22 23  2  0
 21 24  2  0
 23 24  1  0
 24 25  1  0
 23 26  1  0
  6 27  1  0
  4 28  2  0
 14 28  1  0
M  END
>  <ID>  (1) 
conformer_0

$$$$
