
     RDKit          3D

 22 25  0  0  0  0  0  0  0  0999 V2000
   28.6105   27.4128   31.7823 C   0  0  0  0  0  0  0  0  0  0  0  0
   29.7990   27.3230   32.1195 C   0  0  0  0  0  0  0  0  0  0  0  0
   30.0986   27.4722   33.5472 C   0  0  0  0  0  0  0  0  0  0  0  0
   31.3729   27.4246   34.0822 C   0  0  0  0  0  0  0  0  0  0  0  0
   28.9924   27.7508   34.3674 C   0  0  0  0  0  0  0  0  0  0  0  0
   31.7212   27.8537   35.3245 N   0  0  0  0  0  0  0  0  0  0  0  0
   30.7717   28.0612   36.3229 C   0  0  0  0  0  0  0  0  0  0  0  0
   32.4178   26.7205   33.4422 N   0  0  0  0  0  0  0  0  0  0  0  0
   33.0593   28.0534   35.5705 C   0  0  0  0  0  0  0  0  0  0  0  0
   29.2815   28.0907   35.8425 C   0  0  0  0  0  0  0  0  0  0  0  0
   33.6416   26.8558   33.8259 C   0  0  0  0  0  0  0  0  0  0  0  0
   28.3385   27.1012   30.3444 N   0  0  0  0  0  0  0  0  0  0  0  0
   27.5215   27.5554   32.7019 C   0  0  0  0  0  0  0  0  0  0  0  0
   30.9829   28.3308   37.5140 O   0  0  0  0  0  0  0  0  0  0  0  0
   34.0230   27.4751   34.9335 C   0  0  0  0  0  0  0  0  0  0  0  0
   35.4616   27.8497   35.0428 C   0  0  0  0  0  0  0  0  0  0  0  0
   33.4434   28.8254   36.7128 C   0  0  0  0  0  0  0  0  0  0  0  0
   36.4529   27.2333   34.2828 O   0  0  0  0  0  0  0  0  0  0  0  0
   37.3984   28.0193   33.7739 C   0  0  0  0  0  0  0  0  0  0  0  0
   27.8116   27.7890   33.9638 C   0  0  0  0  0  0  0  0  0  0  0  0
   35.8765   28.4577   36.1233 C   0  0  0  0  0  0  0  0  0  0  0  0
   34.8760   29.0268   37.0156 C   0  0  0  0  0  0  0  0  0  0  0  0
  1  2  2  0
  2  3  1  0
  3  4  1  0
  3  5  2  0
  4  6  1  0
  6  7  1  0
  4  8  2  0
  6  9  1  0
  5 10  1  0
  7 10  1  0
  8 11  1  0
  1 12  1  0
  1 13  1  0
  7 14  2  0
  9 15  1  0
 11 15  1  0
 15 16  2  0
  9 17  2  0
 16 18  1  0
 18 19  1  0
  5 20  1  0
 13 20  2  0
 16 21  1  0
 17 22  1  0
 21 22  2  0
M  END
>  <ID>  (1) 
conformer_0

$$$$
