
     RDKit          3D

 14 16  0  0  0  0  0  0  0  0999 V2000
   31.6785   26.7666   31.6514 N   0  0  0  0  0  0  0  0  0  0  0  0
   30.6217   26.9208   31.8836 C   0  0  0  0  0  0  0  0  0  0  0  0
   32.7705   26.9712   32.5806 C   0  0  0  0  0  0  0  0  0  0  0  0
   30.1185   27.3178   33.2002 C   0  0  0  0  0  0  0  0  0  0  0  0
   32.4426   27.4180   33.8269 C   0  0  0  0  0  0  0  0  0  0  0  0
   31.0490   27.6009   34.1164 C   0  0  0  0  0  0  0  0  0  0  0  0
   30.6294   27.9352   35.4356 N   0  0  0  0  0  0  0  0  0  0  0  0
   29.2475   28.0109   35.6336 C   0  0  0  0  0  0  0  0  0  0  0  0
   28.3254   27.8375   34.6157 C   0  0  0  0  0  0  0  0  0  0  0  0
   28.7546   27.5101   33.3466 C   0  0  0  0  0  0  0  0  0  0  0  0
   34.1976   26.9548   32.2845 N   0  0  0  0  0  0  0  0  0  0  0  0
   29.6059   26.6645   30.8015 N   0  0  0  0  0  0  0  0  0  0  0  0
   28.3240   26.5578   30.9867 C   0  0  0  0  0  0  0  0  0  0  0  0
   27.7150   27.2037   32.3170 N   0  0  0  0  0  0  0  0  0  0  0  0
  1  2  1  0
  1  3  2  0
  2  4  1  0
  3  5  1  0
  4  6  1  0
  5  6  1  0
  6  7  2  0
  7  8  1  0
  8  9  2  0
  4 10  2  0
  9 10  1  0
  3 11  1  0
  2 12  2  0
 12 13  1  0
 10 14  1  0
 13 14  2  0
M  END
>  <ID>  (1) 
conformer_0

$$$$
