
     RDKit          3D

 35 41  0  0  0  0  0  0  0  0999 V2000
   28.6105   27.4128   31.7823 C   0  0  0  0  0  0  0  0  0  0  0  0
   29.7990   27.3230   32.1195 C   0  0  0  0  0  0  0  0  0  0  0  0
   30.0986   27.4722   33.5472 C   0  0  0  0  0  0  0  0  0  0  0  0
   31.3729   27.4246   34.0822 C   0  0  0  0  0  0  0  0  0  0  0  0
   28.9924   27.7508   34.3674 C   0  0  0  0  0  0  0  0  0  0  0  0
   31.7212   27.8537   35.3245 N   0  0  0  0  0  0  0  0  0  0  0  0
   30.7717   28.0612   36.3229 C   0  0  0  0  0  0  0  0  0  0  0  0
   30.8776   27.0057   31.2720 N   0  0  0  0  0  0  0  0  0  0  0  0
   28.4163   27.0491   30.3302 N   0  0  0  0  0  0  0  0  0  0  0  0
   27.6717   27.8256   33.8252 C   0  0  0  0  0  0  0  0  0  0  0  0
   32.2079   27.1126   31.5332 C   0  0  0  0  0  0  0  0  0  0  0  0
   29.0084   25.7867   29.9893 C   0  0  0  0  0  0  0  0  0  0  0  0
   32.4707   27.2022   33.1059 C   0  0  0  0  0  0  0  0  0  0  0  0
   27.4512   27.7164   32.5456 N   0  0  0  0  0  0  0  0  0  0  0  0
   33.0557   27.5250   35.6563 C   0  0  0  0  0  0  0  0  0  0  0  0
   31.3469   28.5111   37.6554 C   0  0  0  0  0  0  0  0  0  0  0  0
   30.7945   29.1002   38.5591 C   0  0  0  0  0  0  0  0  0  0  0  0
   33.1076   27.0671   30.8198 O   0  0  0  0  0  0  0  0  0  0  0  0
   32.7509   28.0503   38.0146 C   0  0  0  0  0  0  0  0  0  0  0  0
   34.0049   27.1268   34.6879 C   0  0  0  0  0  0  0  0  0  0  0  0
   35.4163   27.2009   35.1142 C   0  0  0  0  0  0  0  0  0  0  0  0
   31.3888   29.4904   39.7963 N   0  0  0  0  0  0  0  0  0  0  0  0
   32.7020   29.0410   39.8455 C   0  0  0  0  0  0  0  0  0  0  0  0
   33.8014   27.0886   33.4140 C   0  0  0  0  0  0  0  0  0  0  0  0
   33.4861   27.8827   36.7744 C   0  0  0  0  0  0  0  0  0  0  0  0
   33.2909   29.3610   41.2279 N   0  0  0  0  0  0  0  0  0  0  0  0
   33.3428   28.3973   39.0859 N   0  0  0  0  0  0  0  0  0  0  0  0
   30.5339   26.3613   30.0312 C   0  0  0  0  0  0  0  0  0  0  0  0
   35.0415   27.6337   37.2631 C   0  0  0  0  0  0  0  0  0  0  0  0
   35.7494   27.4181   36.4084 C   0  0  0  0  0  0  0  0  0  0  0  0
   33.9934   28.5565   41.8878 C   0  0  0  0  0  0  0  0  0  0  0  0
   33.3028   27.4454   42.3416 C   0  0  0  0  0  0  0  0  0  0  0  0
   34.8853   29.0813   42.6936 O   0  0  0  0  0  0  0  0  0  0  0  0
   33.0031   26.4016   41.6351 O   0  0  0  0  0  0  0  0  0  0  0  0
   33.1568   27.1564   43.6161 O   0  0  0  0  0  0  0  0  0  0  0  0
  1  2  2  0
  2  3  1  0
  3  4  1  0
  3  5  2  0
  4  6  1  0
  6  7  1  0
  2  8  1  0
  1  9  1  0
  5 10  1  0
  8 11  1  0
  9 12  1  0
  4 13  2  0
 11 13  1  0
  1 14  1  0
 10 14  2  0
  6 15  1  0
  7 16  1  0
 16 17  2  0
 11 18  2  0
 16 19  1  0
 15 20  1  0
 20 21  2  0
 17 22  1  0
 22 23  2  0
 13 24  1  0
 20 24  1  0
 15 25  2  0
 19 25  1  0
 23 26  1  0
 19 27  2  0
 23 27  1  0
  8 28  1  0
 12 28  1  0
 25 29  1  0
 21 30  1  0
 29 30  2  0
 26 31  1  0
 31 32  1  0
 31 33  1  0
 32 34  2  0
 32 35  1  0
M  END
>  <ID>  (1) 
conformer_0

$$$$
