
     RDKit          3D

 30 36  0  0  0  0  0  0  0  0999 V2000
   28.3861   26.7246   31.1572 N   0  0  0  0  0  0  0  0  0  0  0  0
   28.5250   27.0962   32.2961 C   0  0  0  0  0  0  0  0  0  0  0  0
   29.7250   27.2322   32.9970 C   0  0  0  0  0  0  0  0  0  0  0  0
   27.3920   27.3544   33.1647 C   0  0  0  0  0  0  0  0  0  0  0  0
   29.7337   27.6923   34.3255 C   0  0  0  0  0  0  0  0  0  0  0  0
   29.4507   26.4017   30.3738 C   0  0  0  0  0  0  0  0  0  0  0  0
   31.0625   27.7700   34.9827 C   0  0  0  0  0  0  0  0  0  0  0  0
   31.1955   28.1666   36.2136 C   0  0  0  0  0  0  0  0  0  0  0  0
   32.2021   27.4832   34.1569 C   0  0  0  0  0  0  0  0  0  0  0  0
   30.0164   28.4645   37.0541 C   0  0  0  0  0  0  0  0  0  0  0  0
   30.6961   26.6155   30.8942 N   0  0  0  0  0  0  0  0  0  0  0  0
   32.5112   28.1877   36.8274 C   0  0  0  0  0  0  0  0  0  0  0  0
   32.1324   26.9323   32.7891 C   0  0  0  0  0  0  0  0  0  0  0  0
   30.2608   29.0626   38.1997 C   0  0  0  0  0  0  0  0  0  0  0  0
   27.4367   27.9455   34.3658 C   0  0  0  0  0  0  0  0  0  0  0  0
   32.6005   28.6967   38.1687 N   0  0  0  0  0  0  0  0  0  0  0  0
   31.4557   28.6418   38.9397 C   0  0  0  0  0  0  0  0  0  0  0  0
   33.9372   28.8688   38.7025 C   0  0  0  0  0  0  0  0  0  0  0  0
   33.6057   27.8713   36.1376 N   0  0  0  0  0  0  0  0  0  0  0  0
   30.8478   26.9266   32.1344 C   0  0  0  0  0  0  0  0  0  0  0  0
   31.9679   29.5821   40.1201 C   0  0  0  0  0  0  0  0  0  0  0  0
   33.4504   27.4293   34.8604 C   0  0  0  0  0  0  0  0  0  0  0  0
   31.8801   26.2248   30.1851 C   0  0  0  0  0  0  0  0  0  0  0  0
   28.8284   28.1129   36.5728 C   0  0  0  0  0  0  0  0  0  0  0  0
   33.4785   29.2561   40.1540 C   0  0  0  0  0  0  0  0  0  0  0  0
   28.6517   27.9009   35.0739 C   0  0  0  0  0  0  0  0  0  0  0  0
   33.6831   28.2281   41.0866 C   0  0  0  0  0  0  0  0  0  0  0  0
   34.4108   28.4647   42.1844 O   0  0  0  0  0  0  0  0  0  0  0  0
   29.3800   26.1181   29.0151 N   0  0  0  0  0  0  0  0  0  0  0  0
   32.5456   27.4696   41.5623 O   0  0  0  0  0  0  0  0  0  0  0  0
  1  2  1  0
  2  3  2  0
  2  4  1  0
  3  5  1  0
  1  6  2  0
  5  7  1  0
  7  8  2  0
  7  9  1  0
  8 10  1  0
  6 11  1  0
  8 12  1  0
  9 13  1  0
 10 14  1  0
  4 15  2  0
 12 16  1  0
 14 17  1  0
 16 17  1  0
 16 18  1  0
 12 19  2  0
  3 20  1  0
 11 20  1  0
 13 20  1  0
 17 21  1  0
  9 22  2  0
 19 22  1  0
 11 23  1  0
 10 24  2  0
 18 25  1  0
 21 25  1  0
  5 26  2  0
 15 26  1  0
 24 26  1  0
 25 27  1  0
 27 28  1  0
  6 29  1  0
 27 30  1  0
M  END
>  <ID>  (1) 
conformer_0

$$$$
