
     RDKit          3D

 14 16  0  0  0  0  0  0  0  0999 V2000
   28.9601   26.8256   31.4397 C   0  0  0  0  0  0  0  0  0  0  0  0
   27.9217   27.2238   32.0982 N   0  0  0  0  0  0  0  0  0  0  0  0
   30.1145   27.0103   32.2160 C   0  0  0  0  0  0  0  0  0  0  0  0
   31.4661   26.7564   31.8878 C   0  0  0  0  0  0  0  0  0  0  0  0
   31.7610   26.6148   30.5795 N   0  0  0  0  0  0  0  0  0  0  0  0
   32.4299   26.9481   32.8352 N   0  0  0  0  0  0  0  0  0  0  0  0
   30.6484   26.3729   29.7282 C   0  0  0  0  0  0  0  0  0  0  0  0
   33.6967   27.5300   32.4191 C   0  0  0  0  0  0  0  0  0  0  0  0
   32.3484   26.3329   34.0530 C   0  0  0  0  0  0  0  0  0  0  0  0
   28.0115   27.6403   33.3512 C   0  0  0  0  0  0  0  0  0  0  0  0
   29.3681   26.6057   30.0960 N   0  0  0  0  0  0  0  0  0  0  0  0
   29.6235   27.4818   33.6511 N   0  0  0  0  0  0  0  0  0  0  0  0
   33.5631   26.6749   34.8337 C   0  0  0  0  0  0  0  0  0  0  0  0
   34.3782   27.6632   33.8144 C   0  0  0  0  0  0  0  0  0  0  0  0
  1  2  1  0
  1  3  2  0
  3  4  1  0
  4  5  2  0
  4  6  1  0
  5  7  1  0
  6  8  1  0
  6  9  1  0
  2 10  2  0
  1 11  1  0
  7 11  2  0
  3 12  1  0
 10 12  1  0
  9 13  1  0
  8 14  1  0
 13 14  1  0
M  END
>  <ID>  (1) 
conformer_0

$$$$
