
     RDKit          3D

 28 34  0  0  0  0  0  0  0  0999 V2000
   28.3861   26.7246   31.1572 N   0  0  0  0  0  0  0  0  0  0  0  0
   28.5250   27.0962   32.2961 C   0  0  0  0  0  0  0  0  0  0  0  0
   29.7250   27.2322   32.9970 C   0  0  0  0  0  0  0  0  0  0  0  0
   27.3920   27.3544   33.1647 C   0  0  0  0  0  0  0  0  0  0  0  0
   29.7337   27.6923   34.3255 C   0  0  0  0  0  0  0  0  0  0  0  0
   29.4507   26.4017   30.3738 C   0  0  0  0  0  0  0  0  0  0  0  0
   31.0625   27.7700   34.9827 C   0  0  0  0  0  0  0  0  0  0  0  0
   31.1955   28.1666   36.2136 C   0  0  0  0  0  0  0  0  0  0  0  0
   32.2021   27.4832   34.1569 C   0  0  0  0  0  0  0  0  0  0  0  0
   30.0164   28.4645   37.0541 C   0  0  0  0  0  0  0  0  0  0  0  0
   30.6961   26.6155   30.8942 N   0  0  0  0  0  0  0  0  0  0  0  0
   32.5112   28.1877   36.8274 C   0  0  0  0  0  0  0  0  0  0  0  0
   32.1324   26.9323   32.7891 C   0  0  0  0  0  0  0  0  0  0  0  0
   30.2608   29.0626   38.1997 C   0  0  0  0  0  0  0  0  0  0  0  0
   27.4367   27.9455   34.3658 C   0  0  0  0  0  0  0  0  0  0  0  0
   33.3077   26.7581   34.7296 O   0  0  0  0  0  0  0  0  0  0  0  0
   31.4431   28.8388   38.9351 C   0  0  0  0  0  0  0  0  0  0  0  0
   32.5762   28.7346   38.1419 N   0  0  0  0  0  0  0  0  0  0  0  0
   31.8225   26.3921   30.0261 C   0  0  0  0  0  0  0  0  0  0  0  0
   28.6360   28.0410   34.9919 C   0  0  0  0  0  0  0  0  0  0  0  0
   30.8950   26.9376   32.1672 C   0  0  0  0  0  0  0  0  0  0  0  0
   33.5889   27.4961   36.1442 C   0  0  0  0  0  0  0  0  0  0  0  0
   33.9176   28.8010   38.6792 C   0  0  0  0  0  0  0  0  0  0  0  0
   34.8669   27.0348   36.7390 C   0  0  0  0  0  0  0  0  0  0  0  0
   29.1643   26.1443   29.0239 N   0  0  0  0  0  0  0  0  0  0  0  0
   28.8112   28.8255   36.3813 C   0  0  0  0  0  0  0  0  0  0  0  0
   35.0281   27.9962   37.9710 C   0  0  0  0  0  0  0  0  0  0  0  0
   34.2514   29.3916   39.6920 O   0  0  0  0  0  0  0  0  0  0  0  0
  1  2  1  0
  2  3  2  0
  2  4  1  0
  3  5  1  0
  1  6  2  0
  5  7  1  0
  7  8  2  0
  7  9  1  0
  8 10  1  0
  6 11  1  0
  8 12  1  0
  9 13  1  0
 10 14  1  0
  4 15  2  0
  9 16  1  0
 14 17  1  0
 12 18  1  0
 17 18  1  0
 11 19  1  0
  5 20  2  0
 15 20  1  0
  3 21  1  0
 11 21  1  0
 13 21  2  0
 12 22  2  0
 16 22  1  0
 18 23  1  0
 22 24  1  0
  6 25  1  0
 10 26  1  0
 20 26  1  0
 23 27  1  0
 24 27  2  0
 23 28  2  0
M  END
>  <ID>  (1) 
conformer_0

$$$$
