
     RDKit          3D

 19 22  0  0  0  0  0  0  0  0999 V2000
   28.3861   26.7246   31.1572 N   0  0  0  0  0  0  0  0  0  0  0  0
   28.5250   27.0962   32.2961 C   0  0  0  0  0  0  0  0  0  0  0  0
   29.7250   27.2322   32.9970 C   0  0  0  0  0  0  0  0  0  0  0  0
   27.3920   27.3544   33.1647 C   0  0  0  0  0  0  0  0  0  0  0  0
   29.7337   27.6923   34.3255 C   0  0  0  0  0  0  0  0  0  0  0  0
   29.4507   26.4017   30.3738 C   0  0  0  0  0  0  0  0  0  0  0  0
   31.0625   27.7700   34.9827 C   0  0  0  0  0  0  0  0  0  0  0  0
   31.1955   28.1666   36.2136 C   0  0  0  0  0  0  0  0  0  0  0  0
   32.2021   27.4832   34.1569 C   0  0  0  0  0  0  0  0  0  0  0  0
   30.0164   28.4645   37.0541 C   0  0  0  0  0  0  0  0  0  0  0  0
   30.6961   26.6155   30.8942 N   0  0  0  0  0  0  0  0  0  0  0  0
   28.5678   27.8905   35.0759 C   0  0  0  0  0  0  0  0  0  0  0  0
   31.8226   26.4259   30.0085 C   0  0  0  0  0  0  0  0  0  0  0  0
   30.8496   27.0531   32.0665 C   0  0  0  0  0  0  0  0  0  0  0  0
   32.1083   27.1689   32.7987 N   0  0  0  0  0  0  0  0  0  0  0  0
   29.2367   26.0573   29.0925 N   0  0  0  0  0  0  0  0  0  0  0  0
   27.4268   27.8134   34.4095 C   0  0  0  0  0  0  0  0  0  0  0  0
   33.3888   27.4440   34.6782 O   0  0  0  0  0  0  0  0  0  0  0  0
   28.7889   28.2832   36.4841 C   0  0  0  0  0  0  0  0  0  0  0  0
  1  2  1  0
  2  3  2  0
  2  4  1  0
  3  5  1  0
  1  6  2  0
  5  7  1  0
  7  8  2  0
  7  9  1  0
  8 10  1  0
  6 11  1  0
  5 12  2  0
 11 13  1  0
  3 14  1  0
 11 14  1  0
  9 15  1  0
 14 15  1  0
  6 16  1  0
  4 17  2  0
 12 17  1  0
  9 18  2  0
 10 19  2  0
 12 19  1  0
M  END
>  <ID>  (1) 
conformer_0

$$$$
