
     RDKit          3D

 36 44  0  0  0  0  0  0  0  0999 V2000
   33.1949   27.0789   31.7935 C   0  0  0  0  0  0  0  0  0  0  0  0
   33.7636   27.3244   32.7670 C   0  0  0  0  0  0  0  0  0  0  0  0
   31.6980   26.9728   31.8957 C   0  0  0  0  0  0  0  0  0  0  0  0
   31.1867   27.0425   33.1756 C   0  0  0  0  0  0  0  0  0  0  0  0
   33.3201   27.3045   34.1004 C   0  0  0  0  0  0  0  0  0  0  0  0
   29.6778   26.9060   33.3010 N   0  0  0  0  0  0  0  0  0  0  0  0
   34.1234   27.5692   35.2957 C   0  0  0  0  0  0  0  0  0  0  0  0
   33.5832   27.9175   36.3965 C   0  0  0  0  0  0  0  0  0  0  0  0
   29.1090   27.5059   34.3296 C   0  0  0  0  0  0  0  0  0  0  0  0
   28.8602   26.4464   32.2350 C   0  0  0  0  0  0  0  0  0  0  0  0
   32.2185   27.8690   36.5086 N   0  0  0  0  0  0  0  0  0  0  0  0
   35.5197   27.5699   35.0881 C   0  0  0  0  0  0  0  0  0  0  0  0
   36.2012   27.7801   36.3724 C   0  0  0  0  0  0  0  0  0  0  0  0
   31.9330   27.3429   34.3251 C   0  0  0  0  0  0  0  0  0  0  0  0
   29.6072   27.6422   35.5972 C   0  0  0  0  0  0  0  0  0  0  0  0
   34.4552   28.1262   37.4811 C   0  0  0  0  0  0  0  0  0  0  0  0
   31.6110   28.0458   37.7935 C   0  0  0  0  0  0  0  0  0  0  0  0
   33.7610   28.5679   38.7928 C   0  0  0  0  0  0  0  0  0  0  0  0
   34.4697   28.8410   39.8280 N   0  0  0  0  0  0  0  0  0  0  0  0
   29.0635   27.7447   36.8393 C   0  0  0  0  0  0  0  0  0  0  0  0
   31.3156   27.6125   35.6019 C   0  0  0  0  0  0  0  0  0  0  0  0
   32.4940   28.3487   38.8854 C   0  0  0  0  0  0  0  0  0  0  0  0
   33.7476   28.9833   40.9478 C   0  0  0  0  0  0  0  0  0  0  0  0
   32.4292   28.5514   40.3785 N   0  0  0  0  0  0  0  0  0  0  0  0
   29.9222   28.0296   38.0084 C   0  0  0  0  0  0  0  0  0  0  0  0
   33.9715   29.1447   42.3319 C   0  0  0  0  0  0  0  0  0  0  0  0
   29.2797   25.8246   31.2718 O   0  0  0  0  0  0  0  0  0  0  0  0
   33.7872   28.1316   43.1562 C   0  0  0  0  0  0  0  0  0  0  0  0
   34.2690   30.3955   42.7481 C   0  0  0  0  0  0  0  0  0  0  0  0
   27.6403   27.1163   32.0999 N   0  0  0  0  0  0  0  0  0  0  0  0
   34.1622   28.6596   44.4732 C   0  0  0  0  0  0  0  0  0  0  0  0
   27.7407   27.7766   34.2883 N   0  0  0  0  0  0  0  0  0  0  0  0
   34.5472   30.5119   44.1375 C   0  0  0  0  0  0  0  0  0  0  0  0
   27.0691   27.5761   33.1728 C   0  0  0  0  0  0  0  0  0  0  0  0
   35.7482   28.1174   37.4665 C   0  0  0  0  0  0  0  0  0  0  0  0
   34.5093   29.6349   44.9751 C   0  0  0  0  0  0  0  0  0  0  0  0
  1  2  2  0
  1  3  1  0
  3  4  2  0
  2  5  1  0
  4  6  1  0
  5  7  1  0
  7  8  1  0
  6  9  1  0
  6 10  1  0
  8 11  1  0
  7 12  2  0
 12 13  1  0
  4 14  1  0
  5 14  2  0
  9 15  1  0
  8 16  2  0
 11 17  1  0
 16 18  1  0
 18 19  1  0
 15 20  2  0
 11 21  1  0
 14 21  1  0
 15 21  1  0
 17 22  1  0
 18 22  2  0
 19 23  1  0
 22 24  1  0
 23 24  2  0
 17 25  2  0
 20 25  1  0
 23 26  1  0
 10 27  2  0
 26 28  1  0
 26 29  2  0
 10 30  1  0
 28 31  2  0
  9 32  2  0
 29 33  1  0
 30 34  2  0
 32 34  1  0
 13 35  2  0
 16 35  1  0
 31 36  1  0
 33 36  2  0
M  END
>  <ID>  (1) 
conformer_0

$$$$
