
     RDKit          3D

 27 32  0  0  0  0  0  0  0  0999 V2000
   31.6785   26.7666   31.6514 N   0  0  0  0  0  0  0  0  0  0  0  0
   30.6217   26.9208   31.8836 C   0  0  0  0  0  0  0  0  0  0  0  0
   30.2598   27.2013   33.2551 C   0  0  0  0  0  0  0  0  0  0  0  0
   31.3558   27.3909   33.9091 C   0  0  0  0  0  0  0  0  0  0  0  0
   32.4086   26.9941   32.9204 N   0  0  0  0  0  0  0  0  0  0  0  0
   29.3523   26.7341   30.9490 C   0  0  0  0  0  0  0  0  0  0  0  0
   28.8942   27.4334   33.7445 C   0  0  0  0  0  0  0  0  0  0  0  0
   28.6312   27.7681   35.0834 C   0  0  0  0  0  0  0  0  0  0  0  0
   31.8681   27.5664   35.2627 C   0  0  0  0  0  0  0  0  0  0  0  0
   31.0663   27.7342   36.2112 N   0  0  0  0  0  0  0  0  0  0  0  0
   33.7640   27.0599   33.1610 C   0  0  0  0  0  0  0  0  0  0  0  0
   29.6307   27.8606   36.1085 C   0  0  0  0  0  0  0  0  0  0  0  0
   28.1272   26.9707   31.4410 N   0  0  0  0  0  0  0  0  0  0  0  0
   33.2687   27.5299   35.5236 C   0  0  0  0  0  0  0  0  0  0  0  0
   34.6256   27.2664   32.2302 C   0  0  0  0  0  0  0  0  0  0  0  0
   29.1464   28.4907   37.2594 N   0  0  0  0  0  0  0  0  0  0  0  0
   33.7646   27.7176   36.8891 C   0  0  0  0  0  0  0  0  0  0  0  0
   27.4604   28.0038   35.4501 N   0  0  0  0  0  0  0  0  0  0  0  0
   27.2695   28.4082   36.7061 C   0  0  0  0  0  0  0  0  0  0  0  0
   34.1651   27.3290   34.4782 C   0  0  0  0  0  0  0  0  0  0  0  0
   29.4772   26.2978   29.7575 N   0  0  0  0  0  0  0  0  0  0  0  0
   28.1496   28.6166   37.5403 C   0  0  0  0  0  0  0  0  0  0  0  0
   28.0529   27.3478   32.8509 C   0  0  0  0  0  0  0  0  0  0  0  0
   36.0126   27.3002   32.4097 C   0  0  0  0  0  0  0  0  0  0  0  0
   35.7006   27.4198   34.6615 C   0  0  0  0  0  0  0  0  0  0  0  0
   36.5083   27.3600   33.6739 C   0  0  0  0  0  0  0  0  0  0  0  0
   36.2151   27.5606   35.8358 O   0  0  0  0  0  0  0  0  0  0  0  0
  1  2  2  0
  2  3  1  0
  3  4  2  0
  1  5  1  0
  4  5  1  0
  2  6  1  0
  3  7  1  0
  7  8  1  0
  4  9  1  0
  9 10  2  0
  5 11  1  0
  8 12  1  0
 10 12  1  0
  6 13  1  0
  9 14  1  0
 11 15  2  0
 12 16  2  0
 14 17  1  0
  8 18  2  0
 18 19  1  0
 11 20  1  0
 14 20  2  0
  6 21  2  0
 16 22  1  0
 19 22  2  0
  7 23  1  0
 13 23  2  0
 15 24  1  0
 20 25  1  0
 24 26  1  0
 25 26  1  0
 25 27  2  0
M  END
>  <ID>  (1) 
conformer_0

$$$$
