
     RDKit          3D

 26 30  0  0  0  0  0  0  0  0999 V2000
   28.3861   26.7246   31.1572 N   0  0  0  0  0  0  0  0  0  0  0  0
   28.5250   27.0962   32.2961 C   0  0  0  0  0  0  0  0  0  0  0  0
   29.7250   27.2322   32.9970 C   0  0  0  0  0  0  0  0  0  0  0  0
   27.3920   27.3544   33.1647 C   0  0  0  0  0  0  0  0  0  0  0  0
   29.7337   27.6923   34.3255 C   0  0  0  0  0  0  0  0  0  0  0  0
   29.4507   26.4017   30.3738 C   0  0  0  0  0  0  0  0  0  0  0  0
   31.0625   27.7700   34.9827 C   0  0  0  0  0  0  0  0  0  0  0  0
   31.1955   28.1666   36.2136 C   0  0  0  0  0  0  0  0  0  0  0  0
   32.2021   27.4832   34.1569 C   0  0  0  0  0  0  0  0  0  0  0  0
   30.0164   28.4645   37.0541 C   0  0  0  0  0  0  0  0  0  0  0  0
   30.6961   26.6155   30.8942 N   0  0  0  0  0  0  0  0  0  0  0  0
   32.5112   28.1877   36.8274 C   0  0  0  0  0  0  0  0  0  0  0  0
   32.7317   28.5507   38.2023 C   0  0  0  0  0  0  0  0  0  0  0  0
   33.5223   27.6243   36.2961 C   0  0  0  0  0  0  0  0  0  0  0  0
   28.6403   28.0207   34.9172 N   0  0  0  0  0  0  0  0  0  0  0  0
   30.8469   27.0160   32.1664 C   0  0  0  0  0  0  0  0  0  0  0  0
   31.9686   29.4604   38.8692 C   0  0  0  0  0  0  0  0  0  0  0  0
   32.0842   27.0678   32.8356 N   0  0  0  0  0  0  0  0  0  0  0  0
   34.0540   28.5236   38.7701 O   0  0  0  0  0  0  0  0  0  0  0  0
   27.4722   27.8885   34.3061 C   0  0  0  0  0  0  0  0  0  0  0  0
   33.9644   28.3861   40.1787 C   0  0  0  0  0  0  0  0  0  0  0  0
   33.4471   29.5124   40.9278 C   0  0  0  0  0  0  0  0  0  0  0  0
   32.0742   29.6797   40.2837 O   0  0  0  0  0  0  0  0  0  0  0  0
   32.9859   29.3734   42.3985 C   0  0  0  0  0  0  0  0  0  0  0  0
   33.3999   27.2452   34.8368 C   0  0  0  0  0  0  0  0  0  0  0  0
   33.5680   28.1318   42.8745 O   0  0  0  0  0  0  0  0  0  0  0  0
  1  2  1  0
  2  3  2  0
  2  4  1  0
  3  5  1  0
  1  6  2  0
  5  7  1  0
  7  8  2  0
  7  9  1  0
  8 10  1  0
  6 11  1  0
  8 12  1  0
 12 13  1  0
 12 14  2  0
  5 15  2  0
  3 16  1  0
 11 16  2  0
 13 17  2  0
  9 18  1  0
 16 18  1  0
 13 19  1  0
  4 20  2  0
 15 20  1  0
 19 21  1  0
 21 22  1  0
 17 23  1  0
 22 23  1  0
 22 24  1  0
  9 25  2  0
 14 25  1  0
 24 26  1  0
M  END
>  <ID>  (1) 
conformer_0

$$$$
