
     RDKit          3D

 20 24  0  0  0  0  0  0  0  0999 V2000
   31.6785   26.7666   31.6514 N   0  0  0  0  0  0  0  0  0  0  0  0
   30.6217   26.9208   31.8836 C   0  0  0  0  0  0  0  0  0  0  0  0
   30.2598   27.2013   33.2551 C   0  0  0  0  0  0  0  0  0  0  0  0
   31.3558   27.3909   33.9091 C   0  0  0  0  0  0  0  0  0  0  0  0
   32.4086   26.9941   32.9204 N   0  0  0  0  0  0  0  0  0  0  0  0
   29.3523   26.7341   30.9490 C   0  0  0  0  0  0  0  0  0  0  0  0
   28.8942   27.4334   33.7445 C   0  0  0  0  0  0  0  0  0  0  0  0
   28.6312   27.7681   35.0834 C   0  0  0  0  0  0  0  0  0  0  0  0
   31.8681   27.5664   35.2627 C   0  0  0  0  0  0  0  0  0  0  0  0
   31.0663   27.7342   36.2112 N   0  0  0  0  0  0  0  0  0  0  0  0
   33.7640   27.0599   33.1610 C   0  0  0  0  0  0  0  0  0  0  0  0
   29.6307   27.8606   36.1085 C   0  0  0  0  0  0  0  0  0  0  0  0
   29.0019   28.1993   37.2729 O   0  0  0  0  0  0  0  0  0  0  0  0
   29.5912   26.2663   29.7681 N   0  0  0  0  0  0  0  0  0  0  0  0
   27.3871   28.2048   35.1288 C   0  0  0  0  0  0  0  0  0  0  0  0
   34.3549   28.1113   33.7767 C   0  0  0  0  0  0  0  0  0  0  0  0
   26.7315   27.9833   33.8976 N   0  0  0  0  0  0  0  0  0  0  0  0
   33.3244   27.5420   35.5057 C   0  0  0  0  0  0  0  0  0  0  0  0
   27.7518   27.5967   33.0526 C   0  0  0  0  0  0  0  0  0  0  0  0
   27.9230   27.0781   31.6137 N   0  0  0  0  0  0  0  0  0  0  0  0
  1  2  2  0
  2  3  1  0
  3  4  2  0
  1  5  1  0
  4  5  1  0
  2  6  1  0
  3  7  1  0
  7  8  1  0
  4  9  1  0
  9 10  2  0
  5 11  1  0
  8 12  1  0
 10 12  1  0
 12 13  2  0
  6 14  1  0
  8 15  2  0
 11 16  1  0
 15 17  1  0
  9 18  1  0
 16 18  1  0
  7 19  1  0
 17 19  2  0
  6 20  2  0
 19 20  1  0
M  END
>  <ID>  (1) 
conformer_0

$$$$
