
     RDKit          3D

 20 23  0  0  0  0  0  0  0  0999 V2000
   28.1762   26.6705   31.3230 O   0  0  0  0  0  0  0  0  0  0  0  0
   29.1481   27.0692   31.7883 C   0  0  0  0  0  0  0  0  0  0  0  0
   29.3371   27.4454   32.9304 N   0  0  0  0  0  0  0  0  0  0  0  0
   30.2650   27.2916   30.8131 N   0  0  0  0  0  0  0  0  0  0  0  0
   30.2150   26.8379   29.5236 C   0  0  0  0  0  0  0  0  0  0  0  0
   30.5449   27.7618   33.3978 C   0  0  0  0  0  0  0  0  0  0  0  0
   30.8451   28.0508   34.7779 N   0  0  0  0  0  0  0  0  0  0  0  0
   31.7610   27.8689   32.5627 C   0  0  0  0  0  0  0  0  0  0  0  0
   31.4473   27.5151   31.2629 C   0  0  0  0  0  0  0  0  0  0  0  0
   32.6156   27.4665   30.4187 N   0  0  0  0  0  0  0  0  0  0  0  0
   28.2226   27.2900   33.8806 C   0  0  0  0  0  0  0  0  0  0  0  0
   29.7726   27.8857   35.7786 C   0  0  0  0  0  0  0  0  0  0  0  0
   32.0661   28.3281   35.2810 C   0  0  0  0  0  0  0  0  0  0  0  0
   28.5324   27.7665   35.0999 C   0  0  0  0  0  0  0  0  0  0  0  0
   33.0217   28.4612   32.8944 C   0  0  0  0  0  0  0  0  0  0  0  0
   32.2346   28.4419   36.6148 O   0  0  0  0  0  0  0  0  0  0  0  0
   32.4333   26.9145   29.3729 C   0  0  0  0  0  0  0  0  0  0  0  0
   33.9822   28.7827   32.0969 O   0  0  0  0  0  0  0  0  0  0  0  0
   33.2167   28.6039   34.3566 C   0  0  0  0  0  0  0  0  0  0  0  0
   31.2244   26.6341   28.7021 C   0  0  0  0  0  0  0  0  0  0  0  0
  1  2  2  0
  2  3  1  0
  2  4  1  0
  4  5  1  0
  3  6  1  0
  6  7  1  0
  6  8  2  0
  4  9  1  0
  8  9  1  0
  9 10  2  0
  3 11  1  0
  7 12  1  0
  7 13  1  0
 11 14  1  0
 12 14  1  0
  8 15  1  0
 13 16  2  0
 10 17  1  0
 15 18  1  0
 13 19  1  0
 15 19  2  0
  5 20  1  0
 17 20  2  0
M  END
>  <ID>  (1) 
conformer_0

$$$$
