
     RDKit          3D

 29 35  0  0  0  0  0  0  0  0999 V2000
   28.3861   26.7246   31.1572 N   0  0  0  0  0  0  0  0  0  0  0  0
   28.5250   27.0962   32.2961 C   0  0  0  0  0  0  0  0  0  0  0  0
   29.7250   27.2322   32.9970 C   0  0  0  0  0  0  0  0  0  0  0  0
   27.3920   27.3544   33.1647 C   0  0  0  0  0  0  0  0  0  0  0  0
   29.7337   27.6923   34.3255 C   0  0  0  0  0  0  0  0  0  0  0  0
   29.4507   26.4017   30.3738 C   0  0  0  0  0  0  0  0  0  0  0  0
   31.0625   27.7700   34.9827 C   0  0  0  0  0  0  0  0  0  0  0  0
   31.1955   28.1666   36.2136 C   0  0  0  0  0  0  0  0  0  0  0  0
   32.2021   27.4832   34.1569 C   0  0  0  0  0  0  0  0  0  0  0  0
   30.0164   28.4645   37.0541 C   0  0  0  0  0  0  0  0  0  0  0  0
   30.6961   26.6155   30.8942 N   0  0  0  0  0  0  0  0  0  0  0  0
   32.5112   28.1877   36.8274 C   0  0  0  0  0  0  0  0  0  0  0  0
   32.1324   26.9323   32.7891 C   0  0  0  0  0  0  0  0  0  0  0  0
   30.2608   29.0626   38.1997 C   0  0  0  0  0  0  0  0  0  0  0  0
   27.4367   27.9455   34.3658 C   0  0  0  0  0  0  0  0  0  0  0  0
   32.6005   28.6967   38.1687 N   0  0  0  0  0  0  0  0  0  0  0  0
   31.4557   28.6418   38.9397 C   0  0  0  0  0  0  0  0  0  0  0  0
   33.9372   28.8688   38.7025 C   0  0  0  0  0  0  0  0  0  0  0  0
   33.5726   28.1996   36.0236 N   0  0  0  0  0  0  0  0  0  0  0  0
   33.4490   27.6766   34.7721 C   0  0  0  0  0  0  0  0  0  0  0  0
   28.6283   28.0318   35.0085 C   0  0  0  0  0  0  0  0  0  0  0  0
   30.9146   26.9565   32.2195 C   0  0  0  0  0  0  0  0  0  0  0  0
   31.7286   28.9835   40.1526 O   0  0  0  0  0  0  0  0  0  0  0  0
   31.7440   26.6674   29.9460 C   0  0  0  0  0  0  0  0  0  0  0  0
   28.8067   28.7845   36.3888 C   0  0  0  0  0  0  0  0  0  0  0  0
   29.4462   26.1917   28.9968 N   0  0  0  0  0  0  0  0  0  0  0  0
   30.6395   26.0303   28.3798 C   0  0  0  0  0  0  0  0  0  0  0  0
   30.4062   25.6230   27.0108 O   0  0  0  0  0  0  0  0  0  0  0  0
   31.7446   26.2738   28.7717 C   0  0  0  0  0  0  0  0  0  0  0  0
  1  2  1  0
  2  3  2  0
  2  4  1  0
  3  5  1  0
  1  6  2  0
  5  7  1  0
  7  8  2  0
  7  9  1  0
  8 10  1  0
  6 11  1  0
  8 12  1  0
  9 13  1  0
 10 14  1  0
  4 15  2  0
 12 16  1  0
 14 17  1  0
 16 17  1  0
 16 18  1  0
 12 19  2  0
  9 20  2  0
 19 20  1  0
  5 21  2  0
 15 21  1  0
  3 22  1  0
 11 22  1  0
 13 22  1  0
 17 23  2  0
 11 24  1  0
 10 25  1  0
 21 25  1  0
  6 26  1  0
 26 27  1  0
 27 28  1  0
 24 29  1  0
 27 29  2  0
M  END
>  <ID>  (1) 
conformer_0

$$$$
