
     RDKit          3D

 34 40  0  0  0  0  0  0  0  0999 V2000
   28.3861   26.7246   31.1572 N   0  0  0  0  0  0  0  0  0  0  0  0
   28.5250   27.0962   32.2961 C   0  0  0  0  0  0  0  0  0  0  0  0
   29.7250   27.2322   32.9970 C   0  0  0  0  0  0  0  0  0  0  0  0
   27.3920   27.3544   33.1647 C   0  0  0  0  0  0  0  0  0  0  0  0
   29.7337   27.6923   34.3255 C   0  0  0  0  0  0  0  0  0  0  0  0
   29.4507   26.4017   30.3738 C   0  0  0  0  0  0  0  0  0  0  0  0
   31.0625   27.7700   34.9827 C   0  0  0  0  0  0  0  0  0  0  0  0
   31.1955   28.1666   36.2136 C   0  0  0  0  0  0  0  0  0  0  0  0
   32.2021   27.4832   34.1569 C   0  0  0  0  0  0  0  0  0  0  0  0
   30.0164   28.4645   37.0541 C   0  0  0  0  0  0  0  0  0  0  0  0
   30.6961   26.6155   30.8942 N   0  0  0  0  0  0  0  0  0  0  0  0
   32.5112   28.1877   36.8274 C   0  0  0  0  0  0  0  0  0  0  0  0
   32.7317   28.5507   38.2023 C   0  0  0  0  0  0  0  0  0  0  0  0
   33.5223   27.6243   36.2961 C   0  0  0  0  0  0  0  0  0  0  0  0
   34.8418   27.6188   36.7696 C   0  0  0  0  0  0  0  0  0  0  0  0
   29.1886   27.6731   37.4323 O   0  0  0  0  0  0  0  0  0  0  0  0
   27.6855   28.0042   34.3553 C   0  0  0  0  0  0  0  0  0  0  0  0
   32.1991   26.9847   32.8374 C   0  0  0  0  0  0  0  0  0  0  0  0
   31.7898   26.3646   30.0047 C   0  0  0  0  0  0  0  0  0  0  0  0
   28.7074   28.0456   34.9120 N   0  0  0  0  0  0  0  0  0  0  0  0
   31.7369   29.1465   39.0366 O   0  0  0  0  0  0  0  0  0  0  0  0
   30.8479   26.9670   32.2042 C   0  0  0  0  0  0  0  0  0  0  0  0
   32.0934   29.0782   40.4257 C   0  0  0  0  0  0  0  0  0  0  0  0
   29.1601   26.0854   29.0308 N   0  0  0  0  0  0  0  0  0  0  0  0
   32.0778   29.8991   41.3161 C   0  0  0  0  0  0  0  0  0  0  0  0
   33.1806   28.0016   40.6632 C   0  0  0  0  0  0  0  0  0  0  0  0
   32.5084   29.8381   42.5776 C   0  0  0  0  0  0  0  0  0  0  0  0
   33.8768   28.3428   38.8091 C   0  0  0  0  0  0  0  0  0  0  0  0
   32.9940   27.5073   42.0808 C   0  0  0  0  0  0  0  0  0  0  0  0
   33.4509   27.1770   34.8917 N   0  0  0  0  0  0  0  0  0  0  0  0
   34.1740   28.0231   40.2572 C   0  0  0  0  0  0  0  0  0  0  0  0
   33.4377   26.3489   42.4297 O   0  0  0  0  0  0  0  0  0  0  0  0
   35.0123   27.8770   38.0488 C   0  0  0  0  0  0  0  0  0  0  0  0
   32.9210   28.4993   43.0459 C   0  0  0  0  0  0  0  0  0  0  0  0
  1  2  1  0
  2  3  2  0
  2  4  1  0
  3  5  1  0
  1  6  2  0
  5  7  1  0
  7  8  2  0
  7  9  1  0
  8 10  1  0
  6 11  1  0
  8 12  1  0
 12 13  1  0
 12 14  2  0
 14 15  1  0
 10 16  2  0
  4 17  2  0
  9 18  1  0
 11 19  1  0
  5 20  2  0
 17 20  1  0
 13 21  1  0
  3 22  1  0
 11 22  1  0
 18 22  2  0
 21 23  1  0
  6 24  1  0
 23 25  2  0
 23 26  1  0
 25 27  1  0
 13 28  2  0
 26 29  1  0
  9 30  2  0
 14 30  1  0
 26 31  1  0
 28 31  1  0
 29 32  2  0
 15 33  2  0
 28 33  1  0
 27 34  2  0
 29 34  1  0
M  END
>  <ID>  (1) 
conformer_0

$$$$
