
     RDKit          3D

 34 40  0  0  0  0  0  0  0  0999 V2000
   28.3861   26.7246   31.1572 N   0  0  0  0  0  0  0  0  0  0  0  0
   28.5250   27.0962   32.2961 C   0  0  0  0  0  0  0  0  0  0  0  0
   29.7250   27.2322   32.9970 C   0  0  0  0  0  0  0  0  0  0  0  0
   27.3920   27.3544   33.1647 C   0  0  0  0  0  0  0  0  0  0  0  0
   29.7337   27.6923   34.3255 C   0  0  0  0  0  0  0  0  0  0  0  0
   29.4507   26.4017   30.3738 C   0  0  0  0  0  0  0  0  0  0  0  0
   31.0625   27.7700   34.9827 C   0  0  0  0  0  0  0  0  0  0  0  0
   31.1955   28.1666   36.2136 C   0  0  0  0  0  0  0  0  0  0  0  0
   32.2021   27.4832   34.1569 C   0  0  0  0  0  0  0  0  0  0  0  0
   30.0164   28.4645   37.0541 C   0  0  0  0  0  0  0  0  0  0  0  0
   30.6961   26.6155   30.8942 N   0  0  0  0  0  0  0  0  0  0  0  0
   32.5112   28.1877   36.8274 C   0  0  0  0  0  0  0  0  0  0  0  0
   32.7317   28.5507   38.2023 C   0  0  0  0  0  0  0  0  0  0  0  0
   33.5223   27.6243   36.2961 C   0  0  0  0  0  0  0  0  0  0  0  0
   34.8418   27.6188   36.7696 C   0  0  0  0  0  0  0  0  0  0  0  0
   29.1886   27.6731   37.4323 O   0  0  0  0  0  0  0  0  0  0  0  0
   27.6855   28.0042   34.3553 C   0  0  0  0  0  0  0  0  0  0  0  0
   32.1991   26.9847   32.8374 C   0  0  0  0  0  0  0  0  0  0  0  0
   31.7898   26.3646   30.0047 C   0  0  0  0  0  0  0  0  0  0  0  0
   28.7074   28.0456   34.9120 N   0  0  0  0  0  0  0  0  0  0  0  0
   31.7369   29.1465   39.0366 O   0  0  0  0  0  0  0  0  0  0  0  0
   30.8479   26.9670   32.2042 C   0  0  0  0  0  0  0  0  0  0  0  0
   32.0934   29.0782   40.4257 C   0  0  0  0  0  0  0  0  0  0  0  0
   29.4455   26.0997   29.0070 N   0  0  0  0  0  0  0  0  0  0  0  0
   33.4129   28.6873   40.6554 C   0  0  0  0  0  0  0  0  0  0  0  0
   33.6101   28.2579   41.9242 O   0  0  0  0  0  0  0  0  0  0  0  0
   33.9383   28.3602   38.7619 C   0  0  0  0  0  0  0  0  0  0  0  0
   30.8958   25.9941   28.7291 C   0  0  0  0  0  0  0  0  0  0  0  0
   31.3109   25.6595   27.6346 O   0  0  0  0  0  0  0  0  0  0  0  0
   33.7186   28.9687   43.1182 C   0  0  0  0  0  0  0  0  0  0  0  0
   33.4031   27.2444   34.8705 N   0  0  0  0  0  0  0  0  0  0  0  0
   35.9534   27.2311   35.9699 O   0  0  0  0  0  0  0  0  0  0  0  0
   35.1114   28.0743   38.0395 C   0  0  0  0  0  0  0  0  0  0  0  0
   34.1985   28.3994   40.0942 C   0  0  0  0  0  0  0  0  0  0  0  0
  1  2  1  0
  2  3  2  0
  2  4  1  0
  3  5  1  0
  1  6  2  0
  5  7  1  0
  7  8  2  0
  7  9  1  0
  8 10  1  0
  6 11  1  0
  8 12  1  0
 12 13  1  0
 12 14  2  0
 14 15  1  0
 10 16  2  0
  4 17  2  0
  9 18  1  0
 11 19  1  0
  5 20  2  0
 17 20  1  0
 13 21  1  0
  3 22  1  0
 11 22  1  0
 18 22  2  0
 21 23  1  0
  6 24  1  0
 23 25  1  0
 25 26  1  0
 13 27  2  0
 19 28  1  0
 24 28  1  0
 28 29  2  0
 26 30  1  0
  9 31  2  0
 14 31  1  0
 15 32  1  0
 15 33  2  0
 27 33  1  0
 25 34  2  0
 27 34  1  0
M  END
>  <ID>  (1) 
conformer_0

$$$$
