
     RDKit          3D

 17 19  0  0  0  0  0  0  0  0999 V2000
   27.4743   28.0259   33.8165 C   0  0  0  0  0  0  0  0  0  0  0  0
   27.2482   27.7152   32.6357 N   0  0  0  0  0  0  0  0  0  0  0  0
   28.4539   27.3644   31.9906 N   0  0  0  0  0  0  0  0  0  0  0  0
   28.6711   26.8181   30.7685 C   0  0  0  0  0  0  0  0  0  0  0  0
   29.5512   27.4379   32.7800 C   0  0  0  0  0  0  0  0  0  0  0  0
   26.9135   28.3883   34.9670 C   0  0  0  0  0  0  0  0  0  0  0  0
   30.8456   27.0362   32.4002 C   0  0  0  0  0  0  0  0  0  0  0  0
   29.8371   26.4997   30.2529 N   0  0  0  0  0  0  0  0  0  0  0  0
   30.9502   26.7123   31.0995 C   0  0  0  0  0  0  0  0  0  0  0  0
   31.9387   26.9776   33.1623 C   0  0  0  0  0  0  0  0  0  0  0  0
   31.9817   27.1571   34.6117 C   0  0  0  0  0  0  0  0  0  0  0  0
   32.2742   26.5486   30.6093 C   0  0  0  0  0  0  0  0  0  0  0  0
   33.2140   27.1103   35.2073 O   0  0  0  0  0  0  0  0  0  0  0  0
   29.2000   27.8221   33.9443 N   0  0  0  0  0  0  0  0  0  0  0  0
   31.0005   27.3752   35.2854 O   0  0  0  0  0  0  0  0  0  0  0  0
   33.3180   26.6034   31.3482 C   0  0  0  0  0  0  0  0  0  0  0  0
   33.1998   26.8578   32.6626 C   0  0  0  0  0  0  0  0  0  0  0  0
  1  2  2  0
  2  3  1  0
  3  4  1  0
  3  5  1  0
  1  6  1  0
  5  7  1  0
  4  8  2  0
  7  9  2  0
  8  9  1  0
  7 10  1  0
 10 11  1  0
  9 12  1  0
 11 13  2  0
  1 14  1  0
  5 14  2  0
 11 15  1  0
 12 16  2  0
 10 17  2  0
 16 17  1  0
M  END
>  <ID>  (1) 
conformer_0

$$$$
