
     RDKit          3D

 15 17  0  0  0  0  0  0  0  0999 V2000
   28.1762   26.6705   31.3230 N   0  0  0  0  0  0  0  0  0  0  0  0
   28.3547   27.1185   32.4129 C   0  0  0  0  0  0  0  0  0  0  0  0
   29.5957   27.4333   32.8458 C   0  0  0  0  0  0  0  0  0  0  0  0
   29.9631   27.7931   34.1835 C   0  0  0  0  0  0  0  0  0  0  0  0
   30.7107   27.1396   32.0202 C   0  0  0  0  0  0  0  0  0  0  0  0
   28.9685   27.9302   35.1703 N   0  0  0  0  0  0  0  0  0  0  0  0
   30.4281   26.6664   30.7465 N   0  0  0  0  0  0  0  0  0  0  0  0
   29.4244   28.1885   36.4355 C   0  0  0  0  0  0  0  0  0  0  0  0
   31.2686   28.0908   34.3965 C   0  0  0  0  0  0  0  0  0  0  0  0
   32.0189   27.4268   32.3160 C   0  0  0  0  0  0  0  0  0  0  0  0
   32.3092   27.8846   33.6100 C   0  0  0  0  0  0  0  0  0  0  0  0
   31.5135   28.4640   35.9515 C   0  0  0  0  0  0  0  0  0  0  0  0
   29.1536   26.4445   30.3612 C   0  0  0  0  0  0  0  0  0  0  0  0
   33.1436   27.2315   31.4435 C   0  0  0  0  0  0  0  0  0  0  0  0
   30.6001   28.5029   36.7831 N   0  0  0  0  0  0  0  0  0  0  0  0
  1  2  1  0
  2  3  2  0
  3  4  1  0
  3  5  1  0
  4  6  1  0
  5  7  2  0
  6  8  2  0
  4  9  2  0
  5 10  1  0
  9 11  1  0
 10 11  2  0
  9 12  1  0
  1 13  2  0
  7 13  1  0
 10 14  1  0
  8 15  1  0
 12 15  2  0
M  END
>  <ID>  (1) 
conformer_0

$$$$
