
     RDKit          3D

 16 18  0  0  0  0  0  0  0  0999 V2000
   28.2086   27.3750   32.1648 N   0  0  0  0  0  0  0  0  0  0  0  0
   27.8303   27.7061   33.2330 C   0  0  0  0  0  0  0  0  0  0  0  0
   29.5583   27.2614   32.1157 C   0  0  0  0  0  0  0  0  0  0  0  0
   30.3138   26.8022   30.9562 N   0  0  0  0  0  0  0  0  0  0  0  0
   30.1847   27.4266   33.3578 C   0  0  0  0  0  0  0  0  0  0  0  0
   31.6429   26.7926   31.0659 C   0  0  0  0  0  0  0  0  0  0  0  0
   29.4901   27.7427   34.5413 C   0  0  0  0  0  0  0  0  0  0  0  0
   31.6490   27.3644   33.4021 C   0  0  0  0  0  0  0  0  0  0  0  0
   29.5755   26.8196   29.7622 C   0  0  0  0  0  0  0  0  0  0  0  0
   32.2994   26.9552   32.2586 C   0  0  0  0  0  0  0  0  0  0  0  0
   33.7075   26.8666   32.3261 C   0  0  0  0  0  0  0  0  0  0  0  0
   34.2901   27.0680   33.5890 C   0  0  0  0  0  0  0  0  0  0  0  0
   32.4550   27.5695   34.4345 C   0  0  0  0  0  0  0  0  0  0  0  0
   32.2142   26.3768   30.0113 O   0  0  0  0  0  0  0  0  0  0  0  0
   33.7353   27.4084   34.4787 C   0  0  0  0  0  0  0  0  0  0  0  0
   28.2706   27.8758   34.4548 N   0  0  0  0  0  0  0  0  0  0  0  0
  1  2  2  0
  1  3  1  0
  3  4  1  0
  3  5  2  0
  4  6  1  0
  5  7  1  0
  5  8  1  0
  4  9  1  0
  6 10  1  0
  8 10  1  0
 10 11  2  0
 11 12  1  0
  8 13  2  0
  6 14  2  0
 12 15  2  0
 13 15  1  0
  2 16  1  0
  7 16  2  0
M  END
>  <ID>  (1) 
conformer_0

$$$$
