
     RDKit          3D

 16 18  0  0  0  0  0  0  0  0999 V2000
   27.6159   27.2592   32.1074 N   0  0  0  0  0  0  0  0  0  0  0  0
   27.5490   27.6190   33.3124 C   0  0  0  0  0  0  0  0  0  0  0  0
   28.9829   27.0580   31.7684 C   0  0  0  0  0  0  0  0  0  0  0  0
   29.7676   27.3797   32.8309 C   0  0  0  0  0  0  0  0  0  0  0  0
   26.6010   27.9499   34.0962 N   0  0  0  0  0  0  0  0  0  0  0  0
   29.3895   26.6792   30.4169 N   0  0  0  0  0  0  0  0  0  0  0  0
   31.1784   27.2735   32.8622 C   0  0  0  0  0  0  0  0  0  0  0  0
   31.7638   27.4590   34.0901 C   0  0  0  0  0  0  0  0  0  0  0  0
   31.0561   27.7125   35.1943 C   0  0  0  0  0  0  0  0  0  0  0  0
   28.9542   27.6992   33.8537 C   0  0  0  0  0  0  0  0  0  0  0  0
   31.8403   27.0663   31.5800 N   0  0  0  0  0  0  0  0  0  0  0  0
   29.6371   27.8169   35.1191 N   0  0  0  0  0  0  0  0  0  0  0  0
   33.2678   27.1723   31.6504 C   0  0  0  0  0  0  0  0  0  0  0  0
   33.2351   27.3054   34.2582 C   0  0  0  0  0  0  0  0  0  0  0  0
   33.9147   27.4904   35.2920 O   0  0  0  0  0  0  0  0  0  0  0  0
   34.0068   27.1302   32.9868 C   0  0  0  0  0  0  0  0  0  0  0  0
  1  2  1  0
  1  3  2  0
  3  4  1  0
  2  5  1  0
  3  6  1  0
  4  7  1  0
  7  8  2  0
  8  9  1  0
  2 10  1  0
  4 10  2  0
  7 11  1  0
  9 12  2  0
 10 12  1  0
 11 13  1  0
  8 14  1  0
 14 15  2  0
 13 16  2  0
 14 16  1  0
M  END
>  <ID>  (1) 
conformer_0

$$$$
