
     RDKit          3D

 12 13  0  0  0  0  0  0  0  0999 V2000
   33.1949   27.0789   31.7935 C   0  0  0  0  0  0  0  0  0  0  0  0
   31.9838   27.0043   31.9862 N   0  0  0  0  0  0  0  0  0  0  0  0
   34.0601   27.2816   32.8989 C   0  0  0  0  0  0  0  0  0  0  0  0
   31.4161   27.0558   33.1877 C   0  0  0  0  0  0  0  0  0  0  0  0
   33.2852   27.3320   34.1796 C   0  0  0  0  0  0  0  0  0  0  0  0
   29.8583   26.8696   33.1411 C   0  0  0  0  0  0  0  0  0  0  0  0
   29.1484   27.3823   34.2186 C   0  0  0  0  0  0  0  0  0  0  0  0
   29.1242   26.4960   32.0532 C   0  0  0  0  0  0  0  0  0  0  0  0
   27.7539   26.7496   32.2607 N   0  0  0  0  0  0  0  0  0  0  0  0
   29.3459   27.8583   35.4372 N   0  0  0  0  0  0  0  0  0  0  0  0
   32.0949   27.2615   34.2345 C   0  0  0  0  0  0  0  0  0  0  0  0
   27.6769   27.2552   33.7095 N   0  0  0  0  0  0  0  0  0  0  0  0
  1  2  1  0
  1  3  2  0
  2  4  2  0
  3  5  1  0
  4  6  1  0
  6  7  1  0
  6  8  2  0
  8  9  1  0
  7 10  1  0
  4 11  1  0
  5 11  2  0
  7 12  1  0
  9 12  2  0
M  END
>  <ID>  (1) 
conformer_0

$$$$
