
     RDKit          3D

 37 43  0  0  0  0  0  0  0  0999 V2000
   28.6609   26.6530   31.1472 N   0  0  0  0  0  0  0  0  0  0  0  0
   28.3631   27.1789   32.2422 C   0  0  0  0  0  0  0  0  0  0  0  0
   29.2684   27.4341   33.2715 N   0  0  0  0  0  0  0  0  0  0  0  0
   29.9698   26.4555   30.7353 C   0  0  0  0  0  0  0  0  0  0  0  0
   30.6111   27.1982   33.0179 C   0  0  0  0  0  0  0  0  0  0  0  0
   28.8915   27.9053   34.5545 C   0  0  0  0  0  0  0  0  0  0  0  0
   30.3442   26.0282   29.6239 N   0  0  0  0  0  0  0  0  0  0  0  0
   31.6237   27.5302   33.9754 C   0  0  0  0  0  0  0  0  0  0  0  0
   31.6884   26.0395   29.2901 C   0  0  0  0  0  0  0  0  0  0  0  0
   27.1850   27.7299   32.3065 O   0  0  0  0  0  0  0  0  0  0  0  0
   30.9481   26.7985   31.7107 C   0  0  0  0  0  0  0  0  0  0  0  0
   32.8415   27.5589   33.6316 N   0  0  0  0  0  0  0  0  0  0  0  0
   32.2808   26.6483   31.1985 C   0  0  0  0  0  0  0  0  0  0  0  0
   31.2064   27.8821   35.2520 C   0  0  0  0  0  0  0  0  0  0  0  0
   29.8203   27.9448   35.5458 C   0  0  0  0  0  0  0  0  0  0  0  0
   32.1612   27.9984   36.2017 C   0  0  0  0  0  0  0  0  0  0  0  0
   33.5285   27.9691   35.5581 C   0  0  0  0  0  0  0  0  0  0  0  0
   31.9525   28.2645   37.5000 N   0  0  0  0  0  0  0  0  0  0  0  0
   29.3432   27.3641   36.7420 C   0  0  0  0  0  0  0  0  0  0  0  0
   34.5958   28.3090   36.6488 C   0  0  0  0  0  0  0  0  0  0  0  0
   33.8360   27.7774   34.4390 C   0  0  0  0  0  0  0  0  0  0  0  0
   34.3292   28.0776   37.8943 C   0  0  0  0  0  0  0  0  0  0  0  0
   28.0331   27.4093   37.0673 C   0  0  0  0  0  0  0  0  0  0  0  0
   35.9271   28.3332   36.1393 C   0  0  0  0  0  0  0  0  0  0  0  0
   36.8098   28.6977   37.1575 C   0  0  0  0  0  0  0  0  0  0  0  0
   27.1373   27.6096   36.0762 C   0  0  0  0  0  0  0  0  0  0  0  0
   38.2226   29.0200   36.6116 O   0  0  0  0  0  0  0  0  0  0  0  0
   32.9407   28.2335   38.3802 C   0  0  0  0  0  0  0  0  0  0  0  0
   32.6121   26.2654   30.0633 N   0  0  0  0  0  0  0  0  0  0  0  0
   36.5921   28.7165   38.4599 C   0  0  0  0  0  0  0  0  0  0  0  0
   27.5192   27.8019   34.7339 C   0  0  0  0  0  0  0  0  0  0  0  0
   37.5499   29.0218   39.4316 O   0  0  0  0  0  0  0  0  0  0  0  0
   38.4306   28.8294   35.3239 C   0  0  0  0  0  0  0  0  0  0  0  0
   35.2551   28.5103   38.9474 C   0  0  0  0  0  0  0  0  0  0  0  0
   37.6344   28.3678   40.4594 C   0  0  0  0  0  0  0  0  0  0  0  0
   32.6461   28.2193   39.7704 C   0  0  0  0  0  0  0  0  0  0  0  0
   33.0885   27.1548   40.5201 O   0  0  0  0  0  0  0  0  0  0  0  0
  1  2  1  0
  2  3  1  0
  1  4  1  0
  3  5  1  0
  3  6  1  0
  4  7  2  0
  5  8  1  0
  7  9  1  0
  2 10  2  0
  4 11  1  0
  5 11  2  0
  8 12  2  0
 11 13  1  0
  8 14  1  0
  6 15  1  0
 14 15  1  0
 14 16  2  0
 16 17  1  0
 16 18  1  0
 15 19  2  0
 17 20  1  0
 12 21  1  0
 17 21  2  0
 20 22  1  0
 19 23  1  0
 20 24  2  0
 24 25  1  0
 23 26  2  0
 25 27  1  0
 18 28  2  0
 22 28  1  0
  9 29  2  0
 13 29  1  0
 25 30  2  0
  6 31  2  0
 26 31  1  0
 30 32  1  0
 27 33  1  0
 22 34  2  0
 30 34  1  0
 32 35  1  0
 28 36  1  0
 36 37  1  0
M  END
>  <ID>  (1) 
conformer_0

$$$$
