
     RDKit          3D

 26 31  0  0  0  0  0  0  0  0999 V2000
   31.6785   26.7666   31.6514 N   0  0  0  0  0  0  0  0  0  0  0  0
   30.6217   26.9208   31.8836 C   0  0  0  0  0  0  0  0  0  0  0  0
   30.2598   27.2013   33.2551 C   0  0  0  0  0  0  0  0  0  0  0  0
   31.3558   27.3909   33.9091 C   0  0  0  0  0  0  0  0  0  0  0  0
   32.4086   26.9941   32.9204 N   0  0  0  0  0  0  0  0  0  0  0  0
   29.3523   26.7341   30.9490 C   0  0  0  0  0  0  0  0  0  0  0  0
   28.8942   27.4334   33.7445 C   0  0  0  0  0  0  0  0  0  0  0  0
   28.6312   27.7681   35.0834 C   0  0  0  0  0  0  0  0  0  0  0  0
   31.8681   27.5664   35.2627 C   0  0  0  0  0  0  0  0  0  0  0  0
   31.0663   27.7342   36.2112 N   0  0  0  0  0  0  0  0  0  0  0  0
   33.7640   27.0599   33.1610 C   0  0  0  0  0  0  0  0  0  0  0  0
   29.6307   27.8606   36.1085 C   0  0  0  0  0  0  0  0  0  0  0  0
   29.0019   28.1993   37.2729 O   0  0  0  0  0  0  0  0  0  0  0  0
   33.2644   27.7733   35.5771 N   0  0  0  0  0  0  0  0  0  0  0  0
   27.3051   27.9723   35.3641 C   0  0  0  0  0  0  0  0  0  0  0  0
   33.6783   27.9721   36.8111 C   0  0  0  0  0  0  0  0  0  0  0  0
   28.1365   27.0183   31.3401 N   0  0  0  0  0  0  0  0  0  0  0  0
   27.9016   27.3867   32.7800 C   0  0  0  0  0  0  0  0  0  0  0  0
   34.0700   27.0657   37.6711 C   0  0  0  0  0  0  0  0  0  0  0  0
   29.6061   26.2555   29.7284 N   0  0  0  0  0  0  0  0  0  0  0  0
   34.2145   27.6907   34.2603 C   0  0  0  0  0  0  0  0  0  0  0  0
   26.3010   27.8537   34.4229 C   0  0  0  0  0  0  0  0  0  0  0  0
   26.6325   27.5408   33.1709 C   0  0  0  0  0  0  0  0  0  0  0  0
   34.7030   29.0002   34.0811 C   0  0  0  0  0  0  0  0  0  0  0  0
   34.8428   28.9406   36.8553 C   0  0  0  0  0  0  0  0  0  0  0  0
   35.2223   29.4490   35.4090 N   0  0  0  0  0  0  0  0  0  0  0  0
  1  2  2  0
  2  3  1  0
  3  4  2  0
  1  5  1  0
  4  5  1  0
  2  6  1  0
  3  7  1  0
  7  8  1  0
  4  9  1  0
  9 10  2  0
  5 11  1  0
  8 12  1  0
 10 12  1  0
 12 13  2  0
  9 14  1  0
  8 15  2  0
 14 16  1  0
  6 17  1  0
  7 18  1  0
 17 18  2  0
 16 19  1  0
  6 20  1  0
 11 21  1  0
 14 21  1  0
 15 22  1  0
 18 23  1  0
 22 23  2  0
 21 24  1  0
 16 25  1  0
 24 26  1  0
 25 26  1  0
M  END
>  <ID>  (1) 
conformer_0

$$$$
