
     RDKit          3D

 19 22  0  0  0  0  0  0  0  0999 V2000
   31.6785   26.7666   31.6514 N   0  0  0  0  0  0  0  0  0  0  0  0
   30.6217   26.9208   31.8836 C   0  0  0  0  0  0  0  0  0  0  0  0
   30.2598   27.2013   33.2551 C   0  0  0  0  0  0  0  0  0  0  0  0
   31.3558   27.3909   33.9091 C   0  0  0  0  0  0  0  0  0  0  0  0
   32.4086   26.9941   32.9204 N   0  0  0  0  0  0  0  0  0  0  0  0
   31.7372   27.6122   35.2018 C   0  0  0  0  0  0  0  0  0  0  0  0
   33.8007   27.0524   33.0478 C   0  0  0  0  0  0  0  0  0  0  0  0
   34.2693   27.5895   34.3997 C   0  0  0  0  0  0  0  0  0  0  0  0
   30.9306   27.7655   36.1288 N   0  0  0  0  0  0  0  0  0  0  0  0
   33.2097   27.6218   35.4820 C   0  0  0  0  0  0  0  0  0  0  0  0
   29.3211   26.7586   30.9530 C   0  0  0  0  0  0  0  0  0  0  0  0
   28.8731   27.4088   33.6766 C   0  0  0  0  0  0  0  0  0  0  0  0
   33.3103   28.1330   36.8149 C   0  0  0  0  0  0  0  0  0  0  0  0
   34.8679   28.8014   34.1687 C   0  0  0  0  0  0  0  0  0  0  0  0
   32.3287   28.2684   37.7406 N   0  0  0  0  0  0  0  0  0  0  0  0
   28.0887   26.9263   31.4007 N   0  0  0  0  0  0  0  0  0  0  0  0
   27.9460   27.3394   32.7409 C   0  0  0  0  0  0  0  0  0  0  0  0
   29.5583   26.2990   29.7203 N   0  0  0  0  0  0  0  0  0  0  0  0
   31.1370   28.0639   37.3816 C   0  0  0  0  0  0  0  0  0  0  0  0
  1  2  2  0
  2  3  1  0
  3  4  2  0
  1  5  1  0
  4  5  1  0
  4  6  1  0
  5  7  1  0
  7  8  1  0
  6  9  2  0
  6 10  1  0
  8 10  1  0
  2 11  1  0
  3 12  1  0
 10 13  2  0
  8 14  1  0
 13 15  1  0
 11 16  1  0
 12 17  1  0
 16 17  2  0
 11 18  1  0
  9 19  1  0
 15 19  2  0
M  END
>  <ID>  (1) 
conformer_0

$$$$
