
     RDKit          3D

 20 24  0  0  0  0  0  0  0  0999 V2000
   27.4743   28.0259   33.8165 C   0  0  0  0  0  0  0  0  0  0  0  0
   27.2482   27.7152   32.6357 N   0  0  0  0  0  0  0  0  0  0  0  0
   28.4539   27.3644   31.9906 N   0  0  0  0  0  0  0  0  0  0  0  0
   28.6711   26.8181   30.7685 C   0  0  0  0  0  0  0  0  0  0  0  0
   29.5512   27.4379   32.7800 C   0  0  0  0  0  0  0  0  0  0  0  0
   26.9135   28.3883   34.9670 C   0  0  0  0  0  0  0  0  0  0  0  0
   30.8456   27.0362   32.4002 C   0  0  0  0  0  0  0  0  0  0  0  0
   29.8371   26.4997   30.2529 N   0  0  0  0  0  0  0  0  0  0  0  0
   30.9502   26.7123   31.0995 C   0  0  0  0  0  0  0  0  0  0  0  0
   31.9387   26.9776   33.1623 C   0  0  0  0  0  0  0  0  0  0  0  0
   31.9817   27.1571   34.6117 C   0  0  0  0  0  0  0  0  0  0  0  0
   32.2084   26.3645   30.5768 C   0  0  0  0  0  0  0  0  0  0  0  0
   31.0573   27.9256   35.2381 N   0  0  0  0  0  0  0  0  0  0  0  0
   28.9901   27.8787   33.9917 C   0  0  0  0  0  0  0  0  0  0  0  0
   29.6603   28.0878   35.2951 C   0  0  0  0  0  0  0  0  0  0  0  0
   33.0556   26.9918   32.6018 C   0  0  0  0  0  0  0  0  0  0  0  0
   33.1566   27.0024   35.1705 O   0  0  0  0  0  0  0  0  0  0  0  0
   33.2695   26.6067   31.2686 C   0  0  0  0  0  0  0  0  0  0  0  0
   27.5155   28.6805   36.1835 C   0  0  0  0  0  0  0  0  0  0  0  0
   28.9979   28.4727   36.2681 C   0  0  0  0  0  0  0  0  0  0  0  0
  1  2  2  0
  2  3  1  0
  3  4  1  0
  3  5  1  0
  1  6  1  0
  5  7  1  0
  4  8  2  0
  7  9  2  0
  8  9  1  0
  7 10  1  0
 10 11  1  0
  9 12  1  0
 11 13  1  0
  1 14  1  0
  5 14  2  0
 13 15  1  0
 14 15  1  0
 10 16  2  0
 11 17  2  0
 12 18  2  0
 16 18  1  0
  6 19  2  0
 15 20  2  0
 19 20  1  0
M  END
>  <ID>  (1) 
conformer_0

$$$$
