
     RDKit          3D

 13 13  0  0  0  0  0  0  0  0999 V2000
   50.0506    9.8549   80.5907 C   0  0  0  0  0  0  0  0  0  0  0  0
   51.0506   10.6549   81.2907 C   0  0  0  0  0  0  0  0  0  0  0  0
   52.0506   11.3549   80.4907 C   0  0  0  0  0  0  0  0  0  0  0  0
   50.5506   11.6549   82.2907 C   0  0  0  0  0  0  0  0  0  0  0  0
   52.7506   12.4549   81.1907 C   0  0  0  0  0  0  0  0  0  0  0  0
   54.1506   12.5549   80.6907 C   0  0  0  0  0  0  0  0  0  0  0  0
   55.1506   12.9549   81.6907 C   0  0  0  0  0  0  0  0  0  0  0  0
   54.8506   14.1549   82.4907 C   0  0  0  0  0  0  0  0  0  0  0  0
   53.5506   14.6549   82.3907 C   0  0  0  0  0  0  0  0  0  0  0  0
   53.2506   16.0549   82.6907 C   0  0  0  0  0  0  0  0  0  0  0  0
   54.3506   16.9549   82.3907 C   0  0  0  0  0  0  0  0  0  0  0  0
   52.1506   16.3549   83.3907 C   0  0  0  0  0  0  0  0  0  0  0  0
   51.1506   10.2549   82.6907 C   0  0  0  0  0  0  0  0  0  0  0  0
  2  1  1  0
  3  2  1  0
  4  2  1  0
  5  3  1  0
  6  5  1  0
  7  6  1  0
  8  7  2  3
  9  8  1  0
 10  9  1  0
 11 10  1  0
 12 10  2  0
 13  2  1  0
 13  4  1  0
M  END
>  <ID>  (1) 
conformer_0

$$$$
