
     RDKit          3D

  6  6  0  0  0  0  0  0  0  0999 V2000
   53.5422   18.0602   83.3126 C   0  0  0  0  0  0  0  0  0  0  0  0
   54.4422   17.4602   82.4126 C   0  0  0  0  0  0  0  0  0  0  0  0
   54.5422   16.1602   82.4126 C   0  0  0  0  0  0  0  0  0  0  0  0
   53.4422   15.5602   83.1126 C   0  0  0  0  0  0  0  0  0  0  0  0
   52.3422   16.1602   83.3126 C   0  0  0  0  0  0  0  0  0  0  0  0
   52.4422   17.4602   83.7126 N   0  0  0  0  0  0  0  0  0  0  0  0
  2  1  2  0
  3  2  1  0
  4  3  2  0
  5  4  1  0
  6  1  1  0
  6  5  2  0
M  END
>  <ID>  (1) 
conformer_0

$$$$
