
     RDKit          3D

 19 23  0  0  0  0  0  0  0  0999 V2000
   48.4287    9.9105   82.2746 C   0  0  0  0  0  0  0  0  0  0  0  0
   49.0287   11.0105   83.0746 C   0  0  0  0  0  0  0  0  0  0  0  0
   49.5287    9.1105   81.6746 O   0  0  0  0  0  0  0  0  0  0  0  0
   50.4287   10.0105   81.0746 C   0  0  0  0  0  0  0  0  0  0  0  0
   51.0287   11.0105   81.6746 C   0  0  0  0  0  0  0  0  0  0  0  0
   50.1287   11.7105   82.5746 O   0  0  0  0  0  0  0  0  0  0  0  0
   52.2287   11.6105   81.2746 C   0  0  0  0  0  3  0  0  0  0  0  0
   52.6287   11.5105   79.9746 C   0  0  0  0  0  0  0  0  0  0  0  0
   54.0287   11.9105   79.6746 C   0  0  0  0  0  0  0  0  0  0  0  0
   54.3287   12.7105   80.8746 C   0  0  0  0  0  0  0  0  0  0  0  0
   55.7287   12.8105   81.2746 C   0  0  0  0  0  0  0  0  0  0  0  0
   56.0287   14.0105   82.0746 C   0  0  0  0  0  0  0  0  0  0  0  0
   55.0287   15.1105   81.9746 C   0  0  0  0  0  0  0  0  0  0  0  0
   53.7287   15.0105   81.7746 N   0  0  0  0  0  0  0  0  0  0  0  0
   53.3287   13.7105   81.2746 C   0  0  0  0  0  0  0  0  0  0  0  0
   52.2287   12.9105   81.8746 O   0  0  0  0  0  0  0  0  0  0  0  0
   50.5287    9.9105   79.6746 C   0  0  0  0  0  0  0  0  0  0  0  0
   52.9287   12.5105   79.1746 O   0  0  0  0  0  0  0  0  0  0  0  0
   51.5287   10.8105   79.1746 C   0  0  0  0  0  0  0  0  0  0  0  0
  2  1  1  0
  3  1  1  0
  4  3  1  0
  5  4  2  0
  6  2  1  0
  6  5  1  0
  7  5  1  0
  8  7  1  0
  9  8  1  0
 10  9  1  0
 11 10  1  0
 12 11  1  0
 13 12  1  0
 14 13  1  0
 15 10  1  0
 15 14  2  0
 16  7  1  0
 16 15  1  0
 17  4  1  0
 18  8  1  0
 18  9  1  0
 19  8  1  0
 19 17  2  0
M  END
>  <ID>  (1) 
conformer_0

$$$$
