
     RDKit          3D

 27 32  0  0  0  0  0  0  0  0999 V2000
   48.7439   10.1287   81.9005 C   0  0  0  0  0  0  0  0  0  0  0  0
   48.9439   10.8287   83.2005 C   0  0  0  0  0  0  0  0  0  0  0  0
   49.9439    9.3287   81.8005 O   0  0  0  0  0  0  0  0  0  0  0  0
   51.1439   10.0287   82.1005 C   0  0  0  0  0  0  0  0  0  0  0  0
   50.8439   11.4287   81.9005 C   0  0  0  0  0  0  0  0  0  0  0  0
   49.9439   11.8287   82.9005 O   0  0  0  0  0  0  0  0  0  0  0  0
   51.8439   12.3287   81.6005 C   0  0  0  0  0  3  0  0  0  0  0  0
   53.0439   11.7287   81.0005 C   0  0  0  0  0  0  0  0  0  0  0  0
   53.9439   12.8287   80.7005 N   0  0  0  0  0  0  0  0  0  0  0  0
   55.2439   12.4287   80.3005 C   0  0  0  0  0  0  0  0  0  0  0  0
   53.9439   13.6287   81.9005 C   0  0  0  0  0  0  0  0  0  0  0  0
   55.0439   14.1287   82.4005 C   0  0  0  0  0  0  0  0  0  0  0  0
   55.6439   11.2287   80.4005 O   0  0  0  0  0  0  0  0  0  0  0  0
   55.0439   15.6287   82.4005 C   0  0  0  0  0  0  0  0  0  0  0  0
   53.7439   16.2287   82.6005 C   0  0  0  0  0  0  0  0  0  0  0  0
   53.7439   17.6287   82.9005 C   0  0  0  0  0  0  0  0  0  0  0  0
   53.1439   18.4287   83.8005 C   0  0  0  0  0  0  0  0  0  0  0  0
   52.8439   15.3287   83.3005 N   0  0  0  0  0  0  0  0  0  0  0  0
   51.8439   16.3287   83.7005 O   0  0  0  0  0  0  0  0  0  0  0  0
   52.7439   16.0287   84.5005 C   0  0  0  0  0  0  0  0  0  0  0  0
   53.6439   18.9287   85.0005 O   0  0  0  0  0  0  0  0  0  0  0  0
   54.8439   11.5287   79.2005 C   0  0  0  0  0  0  0  0  0  0  0  0
   55.1439   13.0287   82.5005 O   0  0  0  0  0  0  0  0  0  0  0  0
   52.5439   11.1287   79.8005 C   0  0  0  0  0  0  0  0  0  0  0  0
   53.4439   11.6287   78.8005 O   0  0  0  0  0  0  0  0  0  0  0  0
   52.2439    9.6287   81.5005 C   0  0  0  0  0  0  0  0  0  0  0  0
   53.2439   10.4287   80.8005 C   0  0  0  0  0  0  0  0  0  0  0  0
  2  1  1  0
  3  1  1  0
  4  3  1  0
  5  4  2  0
  6  2  1  0
  6  5  1  0
  7  5  1  0
  8  7  1  0
  9  8  1  0
 10  9  1  0
 11  9  1  0
 12 11  1  0
 13 10  1  0
 14 12  1  0
 15 14  1  0
 16 15  1  0
 17 16  1  0
 18 15  1  0
 20 18  1  0
 20 19  1  0
 21 17  1  0
 22 10  1  0
 22 13  1  0
 23 11  1  0
 23 12  1  0
 24  8  1  0
 25 22  1  0
 25 24  1  0
 26  4  1  0
 27  8  1  0
 27 24  1  0
 27 26  2  0
M  END
>  <ID>  (1) 
conformer_0

$$$$
