
     RDKit          3D

 27 33  0  0  0  0  0  0  0  0999 V2000
   48.7439   10.1287   81.9005 C   0  0  0  0  0  0  0  0  0  0  0  0
   48.9439   10.8287   83.2005 C   0  0  0  0  0  0  0  0  0  0  0  0
   49.9439    9.3287   81.8005 O   0  0  0  0  0  0  0  0  0  0  0  0
   51.1439   10.0287   82.1005 C   0  0  0  0  0  0  0  0  0  0  0  0
   50.8439   11.4287   81.9005 C   0  0  0  0  0  0  0  0  0  0  0  0
   49.8439   11.9287   82.8005 O   0  0  0  0  0  0  0  0  0  0  0  0
   51.9439   12.3287   81.8005 C   0  0  0  0  0  3  0  0  0  0  0  0
   53.0439   11.7287   81.0005 C   0  0  0  0  0  0  0  0  0  0  0  0
   54.1439   12.5287   80.6005 N   0  0  0  0  0  0  0  0  0  0  0  0
   55.3439   11.8287   80.3005 C   0  0  0  0  0  0  0  0  0  0  0  0
   55.7439   11.1287   81.1005 O   0  0  0  0  0  0  0  0  0  0  0  0
   54.3439   13.6287   81.5005 C   0  0  0  0  0  0  0  0  0  0  0  0
   55.4439   13.7287   82.4005 C   0  0  0  0  0  0  0  0  0  0  0  0
   53.1439   14.4287   81.8005 C   0  0  0  0  0  0  0  0  0  0  0  0
   52.0439   13.5287   82.2005 O   0  0  0  0  0  0  0  0  0  0  0  0
   53.3439   15.5287   82.8005 C   0  0  0  0  0  0  0  0  0  0  0  0
   52.4439   15.3287   83.9005 O   0  0  0  0  0  0  0  0  0  0  0  0
   54.6439   16.1287   82.5005 C   0  0  0  0  0  0  0  0  0  0  0  0
   55.0439   11.2287   79.0005 O   0  0  0  0  0  0  0  0  0  0  0  0
   54.5439   17.5287   82.2005 C   0  0  0  0  0  0  0  0  0  0  0  0
   53.4439   18.1287   83.0005 C   0  0  0  0  0  0  0  0  0  0  0  0
   53.5439   17.9287   84.3005 O   0  0  0  0  0  0  0  0  0  0  0  0
   52.2439   16.3287   83.1005 C   0  0  0  0  0  0  0  0  0  0  0  0
   52.4439   17.6287   83.7005 C   0  0  0  0  0  0  0  0  0  0  0  0
   52.2439   11.2287   79.9005 C   0  0  0  0  0  0  0  0  0  0  0  0
   51.0439   10.7287   80.6005 C   0  0  0  0  0  0  0  0  0  0  0  0
   56.2439   10.5287   78.7005 C   0  0  0  0  0  0  0  0  0  0  0  0
  2  1  1  0
  3  1  1  0
  4  3  1  0
  5  4  1  0
  6  2  1  0
  6  5  1  0
  7  5  1  0
  8  7  1  0
  9  8  1  0
 10  9  1  0
 11 10  1  0
 12  9  1  0
 13 12  1  0
 14 12  1  0
 15  7  1  0
 15 14  1  0
 16 14  1  0
 17 16  1  0
 18 16  1  0
 19 10  1  0
 20 18  1  0
 21 20  1  0
 22 21  1  0
 23 16  1  0
 23 17  1  0
 24 21  1  0
 24 22  1  0
 24 23  1  0
 25  8  2  0
 26  4  1  0
 26  5  1  0
 26 25  1  0
 27 19  1  0
M  END
>  <ID>  (1) 
conformer_0

$$$$
