
     RDKit          3D

 22 25  0  0  0  0  0  0  0  0999 V2000
   48.7439   10.1287   81.9005 C   0  0  0  0  0  0  0  0  0  0  0  0
   48.9439   10.8287   83.2005 C   0  0  0  0  0  0  0  0  0  0  0  0
   49.9439    9.3287   81.8005 O   0  0  0  0  0  0  0  0  0  0  0  0
   51.1439   10.0287   82.1005 C   0  0  0  0  0  0  0  0  0  0  0  0
   50.8439   11.4287   81.9005 C   0  0  0  0  0  0  0  0  0  0  0  0
   49.9439   11.8287   82.9005 O   0  0  0  0  0  0  0  0  0  0  0  0
   51.8439   12.3287   81.6005 C   0  0  0  0  0  3  0  0  0  0  0  0
   53.0439   11.7287   81.0005 C   0  0  0  0  0  0  0  0  0  0  0  0
   53.9439   12.8287   80.7005 N   0  0  0  0  0  0  0  0  0  0  0  0
   54.5439   13.5287   81.8005 C   0  0  0  0  0  0  0  0  0  0  0  0
   54.8439   12.4287   79.6005 C   0  0  0  0  0  0  0  0  0  0  0  0
   54.8439   14.4287   82.7005 C   0  0  0  0  0  0  0  0  0  0  0  0
   54.2439   15.7287   83.1005 C   0  0  0  0  0  0  0  0  0  0  0  0
   54.3439   17.0287   82.4005 C   0  0  0  0  0  0  0  0  0  0  0  0
   53.8439   18.1287   83.0005 C   0  0  0  0  0  0  0  0  0  0  0  0
   52.8439   15.7287   83.6005 N   0  0  0  0  0  0  0  0  0  0  0  0
   52.0439   16.7287   83.3005 C   0  0  0  0  0  0  0  0  0  0  0  0
   52.6439   18.0287   83.7005 C   0  0  0  0  0  0  0  0  0  0  0  0
   52.4439   11.1287   79.8005 C   0  0  0  0  0  0  0  0  0  0  0  0
   52.9439   11.2287   78.6005 F   0  0  0  0  0  0  0  0  0  0  0  0
   52.3439    9.5287   81.8005 C   0  0  0  0  0  0  0  0  0  0  0  0
   53.1439   10.4287   80.9005 C   0  0  0  0  0  0  0  0  0  0  0  0
  2  1  1  0
  3  1  1  0
  4  3  1  0
  5  4  2  0
  6  2  1  0
  6  5  1  0
  7  5  1  0
  8  7  1  0
  9  8  1  0
 10  9  1  0
 11  9  1  0
 12 10  1  0
 13 12  1  0
 14 13  1  0
 15 14  1  0
 16 13  1  0
 17 16  1  0
 18 15  1  0
 18 17  1  0
 19  8  1  0
 20 19  1  0
 21  4  1  0
 22  8  1  0
 22 19  1  0
 22 21  2  0
M  END
>  <ID>  (1) 
conformer_0

$$$$
