
     RDKit          3D

 15 17  0  0  0  0  0  0  0  0999 V2000
   48.7439   10.1287   81.9005 C   0  0  0  0  0  0  0  0  0  0  0  0
   48.9439   10.8287   83.2005 C   0  0  0  0  0  0  0  0  0  0  0  0
   49.9439    9.3287   81.8005 O   0  0  0  0  0  0  0  0  0  0  0  0
   51.1439   10.0287   82.1005 C   0  0  0  0  0  0  0  0  0  0  0  0
   50.8439   11.4287   81.9005 C   0  0  0  0  0  0  0  0  0  0  0  0
   49.9439   11.8287   82.9005 O   0  0  0  0  0  0  0  0  0  0  0  0
   51.9439   12.1287   81.6005 C   0  0  0  0  0  0  0  0  0  0  0  0
   53.0439   11.7287   80.9005 C   0  0  0  0  0  0  0  0  0  0  0  0
   53.7439   12.7287   80.2005 N   0  0  0  0  0  0  0  0  0  0  0  0
   55.1439   12.3287   79.9005 C   0  0  0  0  0  0  0  0  0  0  0  0
   55.1439   11.2287   79.1005 O   0  0  0  0  0  0  0  0  0  0  0  0
   56.2439   12.9287   80.6005 C   0  0  0  0  0  0  0  0  0  0  0  0
   52.4439    9.7287   82.0005 C   0  0  0  0  0  0  0  0  0  0  0  0
   53.4439   10.4287   81.2005 C   0  0  0  0  0  0  0  0  0  0  0  0
   55.5439   11.8287   81.3005 O   0  0  0  0  0  0  0  0  0  0  0  0
  2  1  1  0
  3  1  1  0
  4  3  1  0
  5  4  2  0
  6  2  1  0
  6  5  1  0
  7  5  1  0
  8  7  2  0
  9  8  1  0
 10  9  1  0
 11 10  1  0
 12 10  1  0
 13  4  1  0
 14  8  1  0
 14 13  2  0
 15 10  1  0
 15 12  1  0
M  END
>  <ID>  (1) 
conformer_0

$$$$
