
     RDKit          3D

  6  6  0  0  0  0  0  0  0  0999 V2000
   53.6597   18.0072   83.5513 C   0  0  0  0  0  0  0  0  0  0  0  0
   54.2597   17.4072   82.3513 C   0  0  0  0  0  0  0  0  0  0  0  0
   54.3597   16.0072   82.4513 C   0  0  0  0  0  0  0  0  0  0  0  0
   53.7597   15.4072   83.5513 C   0  0  0  0  0  0  0  0  0  0  0  0
   52.3597   15.8072   83.5513 C   0  0  0  0  0  0  0  0  0  0  0  0
   52.3597   17.2072   83.6513 O   0  0  0  0  0  0  0  0  0  0  0  0
  2  1  1  0
  3  2  1  0
  4  3  1  0
  5  4  1  0
  6  1  1  0
  6  5  1  0
M  END
>  <ID>  (1) 
conformer_0

$$$$
