
     RDKit          3D

 14 15  0  0  0  0  0  0  0  0999 V2000
   48.4287    9.9105   82.2746 C   0  0  0  0  0  0  0  0  0  0  0  0
   49.0287   11.0105   83.0746 C   0  0  0  0  0  0  0  0  0  0  0  0
   49.5287    9.1105   81.6746 O   0  0  0  0  0  0  0  0  0  0  0  0
   50.4287   10.0105   81.0746 C   0  0  0  0  0  0  0  0  0  0  0  0
   51.0287   11.0105   81.6746 C   0  0  0  0  0  0  0  0  0  0  0  0
   50.1287   11.6105   82.6746 O   0  0  0  0  0  0  0  0  0  0  0  0
   52.2287   11.7105   81.3746 C   0  0  0  0  0  0  0  0  0  0  0  0
   52.6287   11.5105   79.9746 C   0  0  0  0  0  0  0  0  0  0  0  0
   54.0287   11.8105   79.5746 C   0  0  0  0  0  0  0  0  0  0  0  0
   54.6287   12.6105   80.6746 C   0  0  0  0  0  0  0  0  0  0  0  0
   55.0287   13.9105   80.3746 N   0  0  0  0  0  0  0  0  0  0  0  0
   54.8287   11.8105   81.8746 C   0  0  0  0  0  0  0  0  0  0  0  0
   50.5287   10.2105   79.6746 C   0  0  0  0  0  0  0  0  0  0  0  0
   51.6287   11.0105   79.2746 C   0  0  0  0  0  0  0  0  0  0  0  0
  2  1  1  0
  3  1  1  0
  4  3  1  0
  5  4  2  0
  6  2  1  0
  6  5  1  0
  7  5  1  0
  8  7  2  0
  9  8  1  0
 10  9  1  0
 11 10  1  0
 12 10  1  0
 13  4  1  0
 14  8  1  0
 14 13  2  0
M  END
>  <ID>  (1) 
conformer_0

$$$$
