
     RDKit          3D

  6  6  0  0  0  0  0  0  0  0999 V2000
   53.9693   17.7312   82.5436 C   0  0  0  0  0  0  0  0  0  0  0  0
   53.0693   18.2312   83.5436 C   0  0  0  0  0  0  0  0  0  0  0  0
   54.2693   16.3312   82.3436 C   0  0  0  0  0  0  0  0  0  0  0  0
   53.8693   15.4312   83.4436 C   0  0  0  0  0  0  0  0  0  0  0  0
   52.6693   15.9312   84.0436 C   0  0  0  0  0  0  0  0  0  0  0  0
   51.9693   17.1312   83.6436 C   0  0  0  0  0  0  0  0  0  0  0  0
  2  1  1  0
  3  1  1  0
  4  3  1  0
  5  4  1  0
  6  2  1  0
  6  5  1  0
M  END
>  <ID>  (1) 
conformer_0

$$$$
