
     RDKit          3D

 22 25  0  0  0  0  0  0  0  0999 V2000
   48.7439   10.1287   81.9005 C   0  0  0  0  0  0  0  0  0  0  0  0
   48.9439   10.8287   83.2005 C   0  0  0  0  0  0  0  0  0  0  0  0
   49.9439    9.3287   81.8005 O   0  0  0  0  0  0  0  0  0  0  0  0
   51.1439   10.0287   82.1005 C   0  0  0  0  0  0  0  0  0  0  0  0
   50.8439   11.4287   81.9005 C   0  0  0  0  0  0  0  0  0  0  0  0
   49.8439   11.9287   82.8005 O   0  0  0  0  0  0  0  0  0  0  0  0
   51.9439   12.3287   81.8005 C   0  0  0  0  0  3  0  0  0  0  0  0
   53.0439   11.7287   81.0005 C   0  0  0  0  0  0  0  0  0  0  0  0
   54.1439   12.5287   80.6005 N   0  0  0  0  0  0  0  0  0  0  0  0
   55.0439   12.1287   79.6005 C   0  0  0  0  0  0  0  0  0  0  0  0
   54.5439   13.5287   81.5005 C   0  0  0  0  0  0  0  0  0  0  0  0
   54.8439   11.2287   78.9005 O   0  0  0  0  0  0  0  0  0  0  0  0
   55.9439   13.8287   81.9005 C   0  0  0  0  0  0  0  0  0  0  0  0
   53.5439   14.1287   82.4005 C   0  0  0  0  0  0  0  0  0  0  0  0
   54.1439   15.2287   83.2005 C   0  0  0  0  0  0  0  0  0  0  0  0
   54.8439   16.2287   82.4005 C   0  0  0  0  0  0  0  0  0  0  0  0
   54.1439   17.5287   82.3005 C   0  0  0  0  0  0  0  0  0  0  0  0
   53.0439   17.6287   83.3005 C   0  0  0  0  0  0  0  0  0  0  0  0
   52.8439   16.2287   83.5005 N   0  0  0  0  0  0  0  0  0  0  0  0
   52.2439   11.2287   79.9005 C   0  0  0  0  0  0  0  0  0  0  0  0
   52.3439   11.1287   78.7005 F   0  0  0  0  0  0  0  0  0  0  0  0
   51.1439   10.6287   80.7005 C   0  0  0  0  0  0  0  0  0  0  0  0
  2  1  1  0
  3  1  1  0
  4  3  1  0
  5  4  1  0
  6  2  1  0
  6  5  1  0
  7  5  1  0
  8  7  1  0
  9  8  1  0
 10  9  1  0
 11  9  1  0
 12 10  2  0
 13 11  1  0
 14 11  1  0
 15 14  1  0
 16 15  1  0
 17 16  1  0
 18 17  1  0
 19 15  1  0
 19 18  1  0
 20  8  2  0
 21 20  1  0
 22  4  1  0
 22  5  1  0
 22 20  1  0
M  END
>  <ID>  (1) 
conformer_0

$$$$
