
     RDKit          3D

 24 28  0  0  0  0  0  0  0  0999 V2000
   48.7439   10.1287   81.9005 C   0  0  0  0  0  0  0  0  0  0  0  0
   48.9439   10.8287   83.2005 C   0  0  0  0  0  0  0  0  0  0  0  0
   49.9439    9.3287   81.8005 O   0  0  0  0  0  0  0  0  0  0  0  0
   51.1439   10.0287   82.1005 C   0  0  0  0  0  0  0  0  0  0  0  0
   50.8439   11.4287   81.9005 C   0  0  0  0  0  0  0  0  0  0  0  0
   49.8439   11.9287   82.8005 O   0  0  0  0  0  0  0  0  0  0  0  0
   51.9439   12.3287   81.8005 C   0  0  0  0  0  3  0  0  0  0  0  0
   53.0439   11.7287   81.0005 C   0  0  0  0  0  0  0  0  0  0  0  0
   54.1439   12.5287   80.8005 N   0  0  0  0  0  0  0  0  0  0  0  0
   55.3439   11.8287   80.4005 C   0  0  0  0  0  0  0  0  0  0  0  0
   54.1439   13.6287   81.7005 C   0  0  0  0  0  0  0  0  0  0  0  0
   55.3439   13.9287   82.4005 C   0  0  0  0  0  0  0  0  0  0  0  0
   55.7439   10.8287   81.0005 O   0  0  0  0  0  0  0  0  0  0  0  0
   53.0439   14.4287   82.2005 C   0  0  0  0  0  0  0  0  0  0  0  0
   53.5439   15.6287   82.8005 C   0  0  0  0  0  0  0  0  0  0  0  0
   54.6439   16.3287   82.2005 C   0  0  0  0  0  0  0  0  0  0  0  0
   52.4439   16.4287   83.3005 O   0  0  0  0  0  0  0  0  0  0  0  0
   53.1439   17.7287   83.5005 C   0  0  0  0  0  0  0  0  0  0  0  0
   54.2439   17.9287   82.5005 C   0  0  0  0  0  0  0  0  0  0  0  0
   54.9439   11.3287   79.1005 O   0  0  0  0  0  0  0  0  0  0  0  0
   53.7439   11.8287   78.6005 C   0  0  0  0  0  0  0  0  0  0  0  0
   52.5439   11.5287   79.6005 C   0  0  0  0  0  0  0  0  0  0  0  0
   51.4439   10.5287   79.7005 C   0  0  0  0  0  0  0  0  0  0  0  0
   50.8439   10.7287   80.8005 C   0  0  0  0  0  0  0  0  0  0  0  0
  2  1  1  0
  3  1  1  0
  4  3  1  0
  5  4  1  0
  6  2  1  0
  6  5  1  0
  7  5  1  0
  8  7  1  0
  9  8  1  0
 10  9  1  0
 11  9  1  0
 12 11  1  0
 13 10  1  0
 14 11  1  0
 15 14  1  0
 16 15  1  0
 17 15  1  0
 18 17  1  0
 19 16  1  0
 19 18  1  0
 20 10  1  0
 21 20  1  0
 22  8  2  0
 22 21  1  0
 23 22  1  0
 24  4  1  0
 24  5  1  0
 24 23  2  0
M  END
>  <ID>  (1) 
conformer_0

$$$$
