
     RDKit          3D

 12 13  0  0  0  0  0  0  0  0999 V2000
   53.2641   18.0753   83.6320 C   0  0  0  0  0  0  0  0  0  0  0  0
   54.0641   17.7753   82.6320 C   0  0  0  0  0  0  0  0  0  0  0  0
   54.4641   16.4753   82.3320 C   0  0  0  0  0  0  0  0  0  0  0  0
   53.9641   15.4753   83.1320 C   0  0  0  0  0  0  0  0  0  0  0  0
   52.6641   15.6753   83.6320 C   0  0  0  0  0  0  0  0  0  0  0  0
   54.2641   14.1753   82.5320 C   0  0  0  0  0  0  0  0  0  0  0  0
   55.5641   13.7753   82.1320 C   0  0  0  0  0  0  0  0  0  0  0  0
   52.2641   16.9753   83.9320 C   0  0  0  0  0  0  0  0  0  0  0  0
   53.2641   13.3753   81.8320 C   0  0  0  0  0  0  0  0  0  0  0  0
   53.9641   12.4753   80.9320 C   0  0  0  0  0  0  0  0  0  0  0  0
   55.4641   12.5753   81.4320 N   0  0  0  0  0  0  0  0  0  0  0  0
   53.5641   13.2753   80.4320 N   0  0  0  0  0  0  0  0  0  0  0  0
  2  1  2  0
  3  2  1  0
  4  3  2  0
  5  4  1  0
  6  4  1  0
  7  6  1  0
  8  1  1  0
  8  5  2  0
  9  6  1  0
 10  9  1  0
 11  7  1  0
 11 10  1  0
 12 10  1  0
M  END
>  <ID>  (1) 
conformer_0

$$$$
