
     RDKit          3D

  6  6  0  0  0  0  0  0  0  0999 V2000
   48.7439   10.1287   81.9005 C   0  0  0  0  0  0  0  0  0  0  0  0
   48.9439   10.8287   83.2005 C   0  0  0  0  0  0  0  0  0  0  0  0
   49.9439    9.3287   81.8005 O   0  0  0  0  0  0  0  0  0  0  0  0
   51.1439    9.9287   82.3005 C   0  0  0  0  0  0  0  0  0  0  0  0
   50.9439   11.3287   81.9005 C   0  0  0  0  0  0  0  0  0  0  0  0
   50.0439   11.9287   82.9005 O   0  0  0  0  0  0  0  0  0  0  0  0
  2  1  1  0
  3  1  1  0
  4  3  1  0
  5  4  1  0
  6  2  1  0
  6  5  1  0
M  END
>  <ID>  (1) 
conformer_0

$$$$
