
     RDKit          3D

 26 29  0  0  0  0  0  0  0  0999 V2000
   48.4287    9.9105   82.2746 C   0  0  0  0  0  0  0  0  0  0  0  0
   49.0287   11.0105   83.0746 C   0  0  0  0  0  0  0  0  0  0  0  0
   49.5287    9.1105   81.6746 O   0  0  0  0  0  0  0  0  0  0  0  0
   50.4287   10.0105   81.0746 C   0  0  0  0  0  0  0  0  0  0  0  0
   51.0287   11.0105   81.6746 C   0  0  0  0  0  0  0  0  0  0  0  0
   50.1287   11.7105   82.5746 O   0  0  0  0  0  0  0  0  0  0  0  0
   52.2287   11.6105   81.2746 C   0  0  0  0  0  0  0  0  0  0  0  0
   52.6287   11.5105   79.9746 C   0  0  0  0  0  0  0  0  0  0  0  0
   54.0287   11.9105   79.6746 C   0  0  0  0  0  0  0  0  0  0  0  0
   54.3287   12.7105   80.8746 C   0  0  0  0  0  0  0  0  0  0  0  0
   55.7287   12.8105   81.2746 C   0  0  0  0  0  0  0  0  0  0  0  0
   56.1287   14.0105   82.0746 C   0  0  0  0  0  0  0  0  0  0  0  0
   55.0287   14.9105   81.7746 C   0  0  0  0  0  0  0  0  0  0  0  0
   53.7287   14.9105   81.9746 N   0  0  0  0  0  0  0  0  0  0  0  0
   52.8287   15.4105   82.9746 C   0  0  0  0  0  0  0  0  0  0  0  0
   51.8287   14.7105   83.1746 O   0  0  0  0  0  0  0  0  0  0  0  0
   53.0287   16.8105   83.1746 C   0  0  0  0  0  0  0  0  0  0  0  0
   54.2287   17.2105   82.3746 C   0  0  0  0  0  0  0  0  0  0  0  0
   52.5287   17.8105   83.8746 C   0  0  0  0  0  0  0  0  0  0  0  0
   53.2287   19.0105   84.1746 C   0  0  0  0  0  0  0  0  0  0  0  0
   54.5287   18.5105   82.0746 C   0  0  0  0  0  0  0  0  0  0  0  0
   54.1287   19.3105   83.1746 C   0  0  0  0  0  0  0  0  0  0  0  0
   53.6287   13.8105   81.2746 C   0  0  0  0  0  0  0  0  0  0  0  0
   50.6287   10.1105   79.6746 C   0  0  0  0  0  0  0  0  0  0  0  0
   51.7287   10.8105   79.0746 C   0  0  0  0  0  0  0  0  0  0  0  0
   55.0287   17.2105   81.7746 F   0  0  0  0  0  0  0  0  0  0  0  0
  2  1  1  0
  3  1  1  0
  4  3  1  0
  5  4  2  0
  6  2  1  0
  6  5  1  0
  7  5  1  0
  8  7  2  0
  9  8  1  0
 10  9  1  0
 11 10  1  0
 12 11  1  0
 13 12  1  0
 14 13  1  0
 15 14  1  0
 16 15  2  0
 17 15  1  0
 18 17  2  0
 19 17  1  0
 20 19  2  0
 21 18  1  0
 22 20  1  0
 22 21  2  0
 23 10  1  0
 23 14  1  0
 24  4  1  0
 25  8  1  0
 25 24  2  0
 26 18  1  0
M  END
>  <ID>  (1) 
conformer_0

$$$$
