
     RDKit          3D

 21 23  0  0  0  0  0  0  0  0999 V2000
   48.4287    9.9105   82.2746 C   0  0  0  0  0  0  0  0  0  0  0  0
   49.0287   11.0105   83.0746 C   0  0  0  0  0  0  0  0  0  0  0  0
   49.5287    9.1105   81.6746 O   0  0  0  0  0  0  0  0  0  0  0  0
   50.4287   10.0105   81.0746 C   0  0  0  0  0  0  0  0  0  0  0  0
   51.0287   11.0105   81.6746 C   0  0  0  0  0  0  0  0  0  0  0  0
   50.1287   11.7105   82.5746 O   0  0  0  0  0  0  0  0  0  0  0  0
   52.2287   11.7105   81.2746 C   0  0  0  0  0  0  0  0  0  0  0  0
   52.6287   12.8105   81.8746 N   0  0  0  0  0  0  0  0  0  0  0  0
   53.9287   13.3105   81.3746 C   0  0  0  0  0  0  0  0  0  0  0  0
   54.4287   12.5105   80.2746 C   0  0  0  0  0  0  0  0  0  0  0  0
   53.7287   11.8105   79.3746 C   0  0  0  0  0  0  0  0  0  0  0  0
   52.4287   11.3105   79.8746 C   0  0  0  0  0  0  0  0  0  0  0  0
   54.8287   14.0105   82.2746 C   0  0  0  0  0  0  0  0  0  0  0  0
   54.7287   15.4105   82.3746 C   0  0  0  0  0  0  0  0  0  0  0  0
   53.7287   16.2105   82.9746 C   0  0  0  0  0  0  0  0  0  0  0  0
   53.9287   17.6105   82.8746 C   0  0  0  0  0  0  0  0  0  0  0  0
   52.9287   18.5105   83.4746 C   0  0  0  0  0  0  0  0  0  0  0  0
   50.6287    9.8105   79.6746 C   0  0  0  0  0  0  0  0  0  0  0  0
   51.5287   10.7105   78.9746 C   0  0  0  0  0  0  0  0  0  0  0  0
   52.6287   15.9105   83.7746 N   0  0  0  0  0  0  0  0  0  0  0  0
   51.9287   14.8105   83.2746 O   0  0  0  0  0  0  0  0  0  0  0  0
  2  1  1  0
  3  1  1  0
  4  3  1  0
  5  4  2  0
  6  2  1  0
  6  5  1  0
  7  5  1  0
  8  7  1  0
  9  8  1  0
 10  9  1  0
 11 10  1  0
 12  7  2  0
 12 11  1  0
 13  9  1  0
 14 13  1  0
 15 14  1  0
 16 15  2  3
 17 16  1  0
 18  4  1  0
 19 12  1  0
 19 18  2  0
 20 15  1  0
 21 20  1  0
M  END
>  <ID>  (1) 
conformer_0

$$$$
