
     RDKit          3D

 14 15  0  0  0  0  0  0  0  0999 V2000
   50.0506    9.8549   80.5907 C   0  0  0  0  0  0  0  0  0  0  0  0
   51.0506   10.6549   81.2907 C   0  0  0  0  0  0  0  0  0  0  0  0
   52.0506   11.3549   80.4907 C   0  0  0  0  0  0  0  0  0  0  0  0
   50.5506   11.6549   82.2907 C   0  0  0  0  0  0  0  0  0  0  0  0
   52.8506   12.3549   81.1907 C   0  0  0  0  0  0  0  0  0  0  0  0
   54.1506   12.6549   80.5907 C   0  0  0  0  0  0  0  0  0  0  0  0
   55.1506   13.4549   81.2907 C   0  0  0  0  0  0  0  0  0  0  0  0
   54.7506   14.3549   82.2907 C   0  0  0  0  0  0  0  0  0  0  0  0
   54.4506   15.7549   82.3907 C   0  0  0  0  0  0  0  0  0  0  0  0
   53.3506   16.1549   83.2907 C   0  0  0  0  0  0  0  0  0  0  0  0
   53.3506   17.6549   83.2907 C   0  0  0  0  0  0  0  0  0  0  0  0
   54.3506   18.1549   82.2907 C   0  0  0  0  0  0  0  0  0  0  0  0
   51.4506   10.3549   82.5907 C   0  0  0  0  0  0  0  0  0  0  0  0
   55.2506   12.0549   81.5907 C   0  0  0  0  0  0  0  0  0  0  0  0
  2  1  1  0
  3  2  1  0
  4  2  1  0
  5  3  1  0
  6  5  1  0
  7  6  1  0
  8  7  1  0
  9  8  1  0
 10  9  1  0
 11 10  1  0
 12 11  1  0
 13  2  1  0
 13  4  1  0
 14  6  1  0
 14  7  1  0
M  END
>  <ID>  (1) 
conformer_0

$$$$
