
     RDKit          3D

 24 28  0  0  0  0  0  0  0  0999 V2000
   48.4287    9.9105   82.2746 C   0  0  0  0  0  0  0  0  0  0  0  0
   49.0287   11.0105   83.0746 C   0  0  0  0  0  0  0  0  0  0  0  0
   49.5287    9.1105   81.6746 O   0  0  0  0  0  0  0  0  0  0  0  0
   50.4287   10.0105   81.0746 C   0  0  0  0  0  0  0  0  0  0  0  0
   51.0287   11.0105   81.6746 C   0  0  0  0  0  0  0  0  0  0  0  0
   50.1287   11.7105   82.5746 O   0  0  0  0  0  0  0  0  0  0  0  0
   52.2287   11.6105   81.1746 C   0  0  0  0  0  0  0  0  0  0  0  0
   52.5287   11.5105   79.8746 C   0  0  0  0  0  0  0  0  0  0  0  0
   53.8287   11.9105   79.3746 C   0  0  0  0  0  0  0  0  0  0  0  0
   54.8287   11.8105   80.4746 C   0  0  0  0  0  0  0  0  0  0  0  0
   55.6287   13.0105   80.7746 C   0  0  0  0  0  0  0  0  0  0  0  0
   55.5287   13.7105   82.0746 C   0  0  0  0  0  0  0  0  0  0  0  0
   55.2287   15.1105   82.0746 C   0  0  0  0  0  0  0  0  0  0  0  0
   54.1287   15.6105   82.7746 C   0  0  0  0  0  0  0  0  0  0  0  0
   53.8287   17.0105   82.3746 C   0  0  0  0  0  0  0  0  0  0  0  0
   53.4287   17.8105   83.5746 C   0  0  0  0  0  0  0  0  0  0  0  0
   53.1287   15.3105   83.6746 N   0  0  0  0  0  0  0  0  0  0  0  0
   52.0287   16.0105   83.6746 O   0  0  0  0  0  0  0  0  0  0  0  0
   52.6287   19.0105   83.3746 C   0  0  0  0  0  0  0  0  0  0  0  0
   52.1287   15.4105   82.6746 C   0  0  0  0  0  0  0  0  0  0  0  0
   54.9287   11.3105   79.1746 O   0  0  0  0  0  0  0  0  0  0  0  0
   52.6287   17.7105   82.6746 N   0  0  0  0  0  0  0  0  0  0  0  0
   50.4287   10.0105   79.6746 C   0  0  0  0  0  0  0  0  0  0  0  0
   51.5287   10.7105   79.1746 C   0  0  0  0  0  0  0  0  0  0  0  0
  2  1  1  0
  3  1  1  0
  4  3  1  0
  5  4  2  0
  6  2  1  0
  6  5  1  0
  7  5  1  0
  8  7  2  0
  9  8  1  0
 10  9  1  0
 11 10  1  0
 12 11  1  0
 13 12  1  0
 14 13  2  3
 15 14  1  0
 16 15  1  0
 17 14  1  0
 19 16  1  0
 20 17  1  0
 20 18  1  0
 21  9  1  0
 21 10  1  0
 22 15  1  0
 22 16  1  0
 22 19  1  0
 23  4  1  0
 24  8  1  0
 24 23  2  0
M  END
>  <ID>  (1) 
conformer_0

$$$$
