
     RDKit          3D

 21 24  0  0  0  0  0  0  0  0999 V2000
   48.4287    9.9105   82.2746 C   0  0  0  0  0  0  0  0  0  0  0  0
   49.0287   11.0105   83.0746 C   0  0  0  0  0  0  0  0  0  0  0  0
   49.5287    9.1105   81.6746 O   0  0  0  0  0  0  0  0  0  0  0  0
   50.4287   10.0105   81.0746 C   0  0  0  0  0  0  0  0  0  0  0  0
   51.0287   11.0105   81.6746 C   0  0  0  0  0  0  0  0  0  0  0  0
   50.2287   11.6105   82.6746 O   0  0  0  0  0  0  0  0  0  0  0  0
   52.2287   11.7105   81.2746 C   0  0  0  0  0  0  0  0  0  0  0  0
   52.6287   11.4105   79.9746 C   0  0  0  0  0  0  0  0  0  0  0  0
   53.8287   11.8105   79.3746 C   0  0  0  0  0  0  0  0  0  0  0  0
   54.6287   12.8105   80.0746 C   0  0  0  0  0  0  0  0  0  0  0  0
   53.7287   13.6105   80.8746 N   0  0  0  0  0  0  0  0  0  0  0  0
   54.4287   12.5105   81.5746 C   0  0  0  0  0  0  0  0  0  0  0  0
   53.4287   14.4105   81.8746 C   0  0  0  0  0  0  0  0  0  0  0  0
   52.8287   15.7105   82.0746 N   0  0  0  0  0  0  0  0  0  0  0  0
   53.1287   16.5105   83.0746 C   0  0  0  0  0  0  0  0  0  0  0  0
   53.3287   17.8105   83.1746 C   0  0  0  0  0  0  0  0  0  0  0  0
   54.4287   14.5105   82.9746 C   0  0  0  0  0  0  0  0  0  0  0  0
   53.2287   18.6105   84.3746 C   0  0  0  0  0  0  0  0  0  0  0  0
   53.9287   15.5105   83.9746 C   0  0  0  0  0  0  0  0  0  0  0  0
   50.5287   10.1105   79.6746 C   0  0  0  0  0  0  0  0  0  0  0  0
   51.5287   11.0105   79.1746 C   0  0  0  0  0  0  0  0  0  0  0  0
  2  1  1  0
  3  1  1  0
  4  3  1  0
  5  4  2  0
  6  2  1  0
  6  5  1  0
  7  5  1  0
  8  7  2  0
  9  8  1  0
 10  9  1  0
 11 10  1  0
 12 10  1  0
 12 11  1  0
 13 11  1  0
 14 13  1  0
 15 14  1  0
 16 15  1  0
 17 13  1  0
 18 16  1  0
 19 15  1  0
 19 17  1  0
 20  4  1  0
 21  8  1  0
 21 20  2  0
M  END
>  <ID>  (1) 
conformer_0

$$$$
