
     RDKit          3D

  8  7  0  0  0  0  0  0  0  0999 V2000
   50.0506    9.8549   80.5907 C   0  0  0  0  0  0  0  0  0  0  0  0
   51.0506   10.6549   81.2907 C   0  0  0  0  0  0  0  0  0  0  0  0
   52.0506   11.3549   80.4907 C   0  0  0  0  0  0  0  0  0  0  0  0
   50.5506   11.6549   82.2907 C   0  0  0  0  0  0  0  0  0  0  0  0
   52.7506   12.4549   81.1907 C   0  0  0  0  0  0  0  0  0  0  0  0
   54.0506   12.7549   80.7907 C   0  0  0  0  0  0  0  0  0  0  0  0
   55.2506   13.0549   81.5907 C   0  0  0  0  0  0  0  0  0  0  0  0
   55.4506   14.4549   81.9907 C   0  0  0  0  0  0  0  0  0  0  0  0
  2  1  1  0
  3  2  1  0
  4  2  1  0
  5  3  1  0
  6  5  1  0
  7  6  1  0
  8  7  1  0
M  END
>  <ID>  (1) 
conformer_0

$$$$
