
     RDKit          3D

 15 17  0  0  0  0  0  0  0  0999 V2000
   50.1895    9.8317   80.7822 C   0  0  0  0  0  0  0  0  0  0  0  0
   50.7895   11.0317   81.1822 C   0  0  0  0  0  0  0  0  0  0  0  0
   52.0895   11.1317   81.6822 C   0  0  0  0  0  0  0  0  0  0  0  0
   52.7895   12.2317   81.2822 N   0  0  0  0  0  0  0  0  0  0  0  0
   54.1895   12.3317   80.8822 C   0  0  0  0  0  0  0  0  0  0  0  0
   55.1895   12.9317   81.7822 C   0  0  0  0  0  0  0  0  0  0  0  0
   54.4895   14.0317   82.3822 C   0  0  0  0  0  0  0  0  0  0  0  0
   53.2895   14.5317   81.7822 N   0  0  0  0  0  0  0  0  0  0  0  0
   52.2895   13.4317   81.8822 C   0  0  0  0  0  0  0  0  0  0  0  0
   50.3895    8.7317   81.7822 C   0  0  0  0  0  0  0  0  0  0  0  0
   51.0895    9.3317   82.8822 C   0  0  0  0  0  0  0  0  0  0  0  0
   54.7895   14.4317   83.5822 O   0  0  0  0  0  0  0  0  0  0  0  0
   50.7895   11.6317   82.1822 C   0  0  0  0  0  0  0  0  0  0  0  0
   49.7895    9.5317   82.8822 C   0  0  0  0  0  0  0  0  0  0  0  0
   50.1895    9.5317   79.3822 F   0  0  0  0  0  0  0  0  0  0  0  0
  2  1  1  0
  3  2  1  0
  4  3  1  0
  5  4  1  0
  6  5  1  0
  7  6  1  0
  8  7  1  0
  9  4  1  0
  9  8  1  0
 10  1  1  0
 11 10  1  0
 12  7  2  0
 13  2  1  0
 13  3  1  0
 14 10  1  0
 14 11  2  0
 15  1  1  0
M  END
>  <ID>  (1) 
conformer_0

$$$$
