
     RDKit          3D

 25 30  0  0  0  0  0  0  0  0999 V2000
   48.7439   10.1287   81.9005 C   0  0  0  0  0  0  0  0  0  0  0  0
   48.9439   10.8287   83.2005 C   0  0  0  0  0  0  0  0  0  0  0  0
   49.9439    9.3287   81.8005 O   0  0  0  0  0  0  0  0  0  0  0  0
   51.1439   10.0287   82.1005 C   0  0  0  0  0  0  0  0  0  0  0  0
   50.8439   11.4287   81.9005 C   0  0  0  0  0  0  0  0  0  0  0  0
   49.9439   11.9287   82.8005 O   0  0  0  0  0  0  0  0  0  0  0  0
   51.9439   12.1287   81.5005 C   0  0  0  0  0  0  0  0  0  0  0  0
   53.0439   11.7287   80.8005 C   0  0  0  0  0  0  0  0  0  0  0  0
   54.1439   12.5287   80.6005 N   0  0  0  0  0  0  0  0  0  0  0  0
   55.2439   12.0287   79.9005 C   0  0  0  0  0  0  0  0  0  0  0  0
   54.2439   13.5287   81.6005 C   0  0  0  0  0  0  0  0  0  0  0  0
   55.1439   11.2287   79.0005 O   0  0  0  0  0  0  0  0  0  0  0  0
   55.5439   14.0287   82.1005 C   0  0  0  0  0  0  0  0  0  0  0  0
   53.1439   14.2287   82.3005 C   0  0  0  0  0  0  0  0  0  0  0  0
   53.5439   15.3287   83.2005 C   0  0  0  0  0  0  0  0  0  0  0  0
   54.5439   16.2287   82.6005 C   0  0  0  0  0  0  0  0  0  0  0  0
   54.1439   17.6287   82.5005 C   0  0  0  0  0  0  0  0  0  0  0  0
   53.0439   17.8287   83.5005 C   0  0  0  0  0  0  0  0  0  0  0  0
   52.6439   16.2287   83.7005 N   0  0  0  0  0  0  0  0  0  0  0  0
   56.1439   11.6287   80.8005 O   0  0  0  0  0  0  0  0  0  0  0  0
   56.4439   12.8287   80.2005 C   0  0  0  0  0  0  0  0  0  0  0  0
   53.7439   16.7287   81.6005 O   0  0  0  0  0  0  0  0  0  0  0  0
   56.6439   13.8287   81.1005 C   0  0  0  0  0  0  0  0  0  0  0  0
   52.3439    9.6287   81.6005 C   0  0  0  0  0  0  0  0  0  0  0  0
   53.4439   10.4287   81.3005 C   0  0  0  0  0  0  0  0  0  0  0  0
  2  1  1  0
  3  1  1  0
  4  3  1  0
  5  4  2  0
  6  2  1  0
  6  5  1  0
  7  5  1  0
  8  7  2  0
  9  8  1  0
 10  9  1  0
 11  9  1  0
 12 10  1  0
 13 11  1  0
 14 11  2  3
 15 14  1  0
 16 15  1  0
 17 16  1  0
 18 17  1  0
 19 15  1  0
 19 18  1  0
 20 10  1  0
 21 10  1  0
 21 20  1  0
 22 16  1  0
 22 17  1  0
 23 13  1  0
 23 21  1  0
 24  4  1  0
 25  8  1  0
 25 24  2  0
M  END
>  <ID>  (1) 
conformer_0

$$$$
