
     RDKit          3D

  7  8  0  0  0  0  0  0  0  0999 V2000
   53.1337   18.3069   83.8277 C   0  0  0  0  0  0  0  0  0  0  0  0
   53.9337   17.8069   82.8277 C   0  0  0  0  0  0  0  0  0  0  0  0
   54.3337   16.5069   82.5277 C   0  0  0  0  0  0  0  0  0  0  0  0
   53.9337   15.5069   83.4277 C   0  0  0  0  0  0  0  0  0  0  0  0
   52.5337   15.8069   83.8277 C   0  0  0  0  0  0  0  0  0  0  0  0
   52.2337   17.2069   84.1277 C   0  0  0  0  0  0  0  0  0  0  0  0
   51.9337   16.6069   82.9277 O   0  0  0  0  0  0  0  0  0  0  0  0
  2  1  2  0
  3  2  1  0
  4  3  2  0
  5  4  1  0
  6  1  1  0
  6  5  2  0
  7  5  1  0
  7  6  1  0
M  END
>  <ID>  (1) 
conformer_0

$$$$
