
     RDKit          3D

 26 30  0  0  0  0  0  0  0  0999 V2000
   48.7439   10.1287   81.9005 C   0  0  0  0  0  0  0  0  0  0  0  0
   48.9439   10.8287   83.2005 C   0  0  0  0  0  0  0  0  0  0  0  0
   49.9439    9.3287   81.8005 O   0  0  0  0  0  0  0  0  0  0  0  0
   51.1439   10.0287   82.1005 C   0  0  0  0  0  0  0  0  0  0  0  0
   50.8439   11.4287   81.9005 C   0  0  0  0  0  0  0  0  0  0  0  0
   49.9439   11.9287   82.8005 O   0  0  0  0  0  0  0  0  0  0  0  0
   51.9439   12.1287   81.5005 C   0  0  0  0  0  0  0  0  0  0  0  0
   53.0439   11.7287   80.8005 C   0  0  0  0  0  0  0  0  0  0  0  0
   54.1439   12.5287   80.6005 N   0  0  0  0  0  0  0  0  0  0  0  0
   55.4439   11.9287   80.3005 C   0  0  0  0  0  0  0  0  0  0  0  0
   55.8439   11.0287   80.9005 O   0  0  0  0  0  0  0  0  0  0  0  0
   54.5439   13.5287   81.6005 C   0  0  0  0  0  0  0  0  0  0  0  0
   55.8439   13.6287   82.0005 C   0  0  0  0  0  0  0  0  0  0  0  0
   53.4439   14.1287   82.4005 C   0  0  0  0  0  0  0  0  0  0  0  0
   52.2439   13.4287   82.2005 O   0  0  0  0  0  0  0  0  0  0  0  0
   53.6439   15.4287   83.0005 C   0  0  0  0  0  0  0  0  0  0  0  0
   54.5439   16.4287   82.4005 C   0  0  0  0  0  0  0  0  0  0  0  0
   54.2439   17.8287   82.5005 C   0  0  0  0  0  0  0  0  0  0  0  0
   53.5439   18.3287   83.7005 C   0  0  0  0  0  0  0  0  0  0  0  0
   52.5439   17.2287   83.9005 O   0  0  0  0  0  0  0  0  0  0  0  0
   52.2439   16.3287   83.0005 C   0  0  0  0  0  0  0  0  0  0  0  0
   54.5439   15.8287   83.7005 O   0  0  0  0  0  0  0  0  0  0  0  0
   55.1439   11.5287   78.9005 O   0  0  0  0  0  0  0  0  0  0  0  0
   53.9439   11.5287   78.4005 C   0  0  0  0  0  0  0  0  0  0  0  0
   52.3439    9.6287   81.7005 C   0  0  0  0  0  0  0  0  0  0  0  0
   53.4439   10.3287   81.1005 C   0  0  0  0  0  0  0  0  0  0  0  0
  2  1  1  0
  3  1  1  0
  4  3  1  0
  5  4  2  0
  6  2  1  0
  6  5  1  0
  7  5  1  0
  8  7  2  0
  9  8  1  0
 10  9  1  0
 11 10  1  0
 12  9  1  0
 13 12  2  0
 14 12  1  0
 15  7  1  0
 15 14  1  0
 16 14  1  0
 17 16  1  0
 18 17  1  0
 19 18  1  0
 20 19  1  0
 21 16  1  0
 21 20  1  0
 22 16  1  0
 22 17  1  0
 23 10  1  0
 24 23  1  0
 25  4  1  0
 26  8  1  0
 26 25  2  0
M  END
>  <ID>  (1) 
conformer_0

$$$$
