
     RDKit          3D

 15 17  0  0  0  0  0  0  0  0999 V2000
   54.3817   17.9922   82.3755 C   0  0  0  0  0  0  0  0  0  0  0  0
   53.3817   17.9922   83.4755 C   0  0  0  0  0  0  0  0  0  0  0  0
   54.8817   16.5922   82.1755 C   0  0  0  0  0  0  0  0  0  0  0  0
   54.0817   15.5922   82.8755 C   0  0  0  0  0  0  0  0  0  0  0  0
   52.6817   15.8922   82.5755 C   0  0  0  0  0  0  0  0  0  0  0  0
   54.5817   14.1922   82.6755 C   0  0  0  0  0  0  0  0  0  0  0  0
   53.6817   13.4922   81.7755 C   0  0  0  0  0  0  0  0  0  0  0  0
   52.2817   13.6922   81.8755 C   0  0  0  0  0  0  0  0  0  0  0  0
   54.1817   12.1922   81.2755 C   0  0  0  0  0  0  0  0  0  0  0  0
   52.0817   14.5922   82.8755 N   0  0  0  0  0  0  0  0  0  0  0  0
   52.3817   16.9922   83.4755 C   0  0  0  0  0  0  0  0  0  0  0  0
   55.9817   13.7922   82.3755 C   0  0  0  0  0  0  0  0  0  0  0  0
   55.3817   12.1922   80.4755 C   0  0  0  0  0  0  0  0  0  0  0  0
   55.7817   11.0922   79.6755 C   0  0  0  0  0  0  0  0  0  0  0  0
   55.3817   11.7922   81.8755 N   0  0  0  0  0  0  0  0  0  0  0  0
  2  1  1  0
  3  1  1  0
  4  3  1  0
  5  4  1  0
  6  4  1  0
  7  6  1  0
  8  7  1  0
  9  7  1  0
 10  5  1  0
 10  8  1  0
 11  2  2  0
 11  5  1  0
 12  6  1  0
 13  9  1  0
 14 13  1  0
 15  9  1  0
 15 13  1  0
M  END
>  <ID>  (1) 
conformer_0

$$$$
