
     RDKit          3D

 23 27  0  0  0  0  0  0  0  0999 V2000
   48.4287    9.9105   82.2746 C   0  0  0  0  0  0  0  0  0  0  0  0
   49.0287   11.0105   83.0746 C   0  0  0  0  0  0  0  0  0  0  0  0
   49.5287    9.1105   81.6746 O   0  0  0  0  0  0  0  0  0  0  0  0
   50.4287   10.0105   81.0746 C   0  0  0  0  0  0  0  0  0  0  0  0
   51.0287   11.0105   81.6746 C   0  0  0  0  0  0  0  0  0  0  0  0
   50.1287   11.7105   82.5746 O   0  0  0  0  0  0  0  0  0  0  0  0
   52.2287   11.6105   81.1746 C   0  0  0  0  0  0  0  0  0  0  0  0
   52.5287   11.6105   79.8746 C   0  0  0  0  0  0  0  0  0  0  0  0
   53.8287   12.0105   79.3746 C   0  0  0  0  0  0  0  0  0  0  0  0
   54.7287   12.6105   80.3746 C   0  0  0  0  0  0  0  0  0  0  0  0
   54.0287   13.3105   81.4746 C   0  0  0  0  0  0  0  0  0  0  0  0
   54.4287   12.0105   81.6746 O   0  0  0  0  0  0  0  0  0  0  0  0
   54.6287   14.2105   82.4746 C   0  0  0  0  0  0  0  0  0  0  0  0
   54.2287   15.5105   82.7746 C   0  0  0  0  0  0  0  0  0  0  0  0
   54.2287   16.8105   82.4746 C   0  0  0  0  0  0  0  0  0  0  0  0
   53.4287   17.8105   83.0746 C   0  0  0  0  0  0  0  0  0  0  0  0
   52.3287   17.1105   83.6746 O   0  0  0  0  0  0  0  0  0  0  0  0
   51.9287   15.9105   82.8746 C   0  0  0  0  0  0  0  0  0  0  0  0
   52.0287   14.7105   83.2746 O   0  0  0  0  0  0  0  0  0  0  0  0
   52.7287   15.1105   82.2746 C   0  0  0  0  0  0  0  0  0  0  0  0
   50.5287   10.1105   79.6746 C   0  0  0  0  0  0  0  0  0  0  0  0
   56.0287   13.8105   82.3746 C   0  0  0  0  0  0  0  0  0  0  0  0
   51.5287   10.9105   79.1746 C   0  0  0  0  0  0  0  0  0  0  0  0
  2  1  1  0
  3  1  1  0
  4  3  1  0
  5  4  2  0
  6  2  1  0
  6  5  1  0
  7  5  1  0
  8  7  2  0
  9  8  1  0
 10  9  1  0
 11 10  1  0
 12 10  1  0
 12 11  1  0
 13 11  1  0
 14 13  1  0
 15 14  1  0
 16 15  1  0
 17 16  1  0
 18 17  1  0
 19 18  1  0
 20 14  1  0
 20 18  1  0
 20 19  1  0
 21  4  1  0
 22 13  1  0
 23  8  1  0
 23 21  2  0
M  END
>  <ID>  (1) 
conformer_0

$$$$
