
     RDKit          3D

 28 36  0  0  0  0  0  0  0  0999 V2000
   48.7439   10.1287   81.9005 C   0  0  0  0  0  0  0  0  0  0  0  0
   48.9439   10.8287   83.2005 C   0  0  0  0  0  0  0  0  0  0  0  0
   49.9439    9.3287   81.8005 O   0  0  0  0  0  0  0  0  0  0  0  0
   51.1439   10.0287   82.1005 C   0  0  0  0  0  0  0  0  0  0  0  0
   50.8439   11.4287   81.9005 C   0  0  0  0  0  0  0  0  0  0  0  0
   49.9439   11.8287   82.9005 O   0  0  0  0  0  0  0  0  0  0  0  0
   51.8439   12.3287   81.6005 C   0  0  0  0  0  3  0  0  0  0  0  0
   53.0439   11.7287   81.0005 C   0  0  0  0  0  0  0  0  0  0  0  0
   53.9439   12.8287   80.7005 N   0  0  0  0  0  0  0  0  0  0  0  0
   55.2439   12.4287   80.3005 C   0  0  0  0  0  0  0  0  0  0  0  0
   53.9439   13.6287   81.9005 C   0  0  0  0  0  0  0  0  0  0  0  0
   55.0439   14.1287   82.4005 C   0  0  0  0  0  0  0  0  0  0  0  0
   55.6439   11.2287   80.4005 O   0  0  0  0  0  0  0  0  0  0  0  0
   55.0439   15.6287   82.4005 C   0  0  0  0  0  0  0  0  0  0  0  0
   53.7439   16.2287   82.6005 C   0  0  0  0  0  0  0  0  0  0  0  0
   53.7439   17.6287   82.9005 C   0  0  0  0  0  0  0  0  0  0  0  0
   53.1439   18.3287   83.9005 C   0  0  0  0  0  0  0  0  0  0  0  0
   52.8439   15.3287   83.2005 N   0  0  0  0  0  0  0  0  0  0  0  0
   51.9439   16.2287   83.9005 O   0  0  0  0  0  0  0  0  0  0  0  0
   52.7439   14.2287   82.4005 C   0  0  0  0  0  0  0  0  0  0  0  0
   51.8439   18.9287   83.8005 C   0  0  0  0  0  0  0  0  0  0  0  0
   51.6439   13.4287   82.4005 O   0  0  0  0  0  0  0  0  0  0  0  0
   54.9439   11.5287   79.3005 C   0  0  0  0  0  0  0  0  0  0  0  0
   52.6439   11.0287   79.8005 C   0  0  0  0  0  0  0  0  0  0  0  0
   53.6439   11.5287   78.8005 O   0  0  0  0  0  0  0  0  0  0  0  0
   51.9439   17.4287   84.1005 C   0  0  0  0  0  0  0  0  0  0  0  0
   52.3439    9.5287   81.6005 C   0  0  0  0  0  0  0  0  0  0  0  0
   53.2439   10.4287   80.9005 C   0  0  0  0  0  0  0  0  0  0  0  0
  2  1  1  0
  3  1  1  0
  4  3  1  0
  5  4  2  0
  6  2  1  0
  6  5  1  0
  7  5  1  0
  8  7  1  0
  9  8  1  0
 10  9  1  0
 11  9  1  0
 12 11  1  0
 13 10  1  0
 14 12  1  0
 15 14  1  0
 16 15  1  0
 17 16  1  0
 18 15  1  0
 19 18  1  0
 20 11  1  0
 20 18  1  0
 21 17  1  0
 22  7  1  0
 22 20  1  0
 23 10  1  0
 23 13  1  0
 24  8  1  0
 25 23  1  0
 25 24  1  0
 26 17  1  0
 26 19  1  0
 26 21  1  0
 27  4  1  0
 28  8  1  0
 28 24  1  0
 28 27  2  0
M  END
>  <ID>  (1) 
conformer_0

$$$$
