
     RDKit          3D

 13 13  0  0  0  0  0  0  0  0999 V2000
  -15.8602   -5.7271    4.3252 C   0  0  0  0  0  0  0  0  0  0  0  0
  -16.0602   -6.3271    5.5252 C   0  0  0  0  0  0  0  0  0  0  0  0
  -17.3602   -6.2271    6.0252 C   0  0  0  0  0  0  0  0  0  0  0  0
  -18.2602   -5.7271    5.1252 C   0  0  0  0  0  0  0  0  0  0  0  0
  -18.1602   -5.8271    3.7252 C   0  0  0  0  0  0  0  0  0  0  0  0
  -16.7602   -6.0271    3.3252 C   0  0  0  0  0  0  0  0  0  0  0  0
  -14.4602   -5.9271    3.9252 N   0  0  0  0  0  0  0  0  0  0  0  0
  -13.6602   -6.5271    5.0252 C   0  0  0  0  0  0  0  0  0  0  0  0
  -12.4602   -6.0271    5.3252 N   0  0  0  0  0  0  0  0  0  0  0  0
  -11.2602   -6.7271    5.3252 N   0  0  0  0  0  0  0  0  0  0  0  0
  -19.5602   -5.5271    5.7252 N   0  0  0  0  0  0  0  0  0  0  0  0
  -20.0602   -5.9271    6.8252 C   0  0  0  0  0  0  0  0  0  0  0  0
  -21.4602   -6.2271    7.1252 C   0  0  0  0  0  0  0  0  0  0  0  0
  2  1  2  0
  3  2  1  0
  4  3  2  0
  5  4  1  0
  6  1  1  0
  6  5  2  0
  7  1  1  0
  8  7  1  0
  9  8  1  0
 10  9  1  0
 11  4  1  0
 12 11  1  0
 13 12  1  0
M  END
>  <ID>  (1) 
conformer_0

$$$$
