
     RDKit          3D

 15 17  0  0  0  0  0  0  0  0999 V2000
  -15.3281   -5.5593    4.4715 C   0  0  0  0  0  0  0  0  0  0  0  0
  -15.7281   -6.7593    5.2715 C   0  0  0  0  0  0  0  0  0  0  0  0
  -14.0281   -6.0593    3.9715 N   0  0  0  0  0  0  0  0  0  0  0  0
  -17.0281   -6.3593    5.8715 C   0  0  0  0  0  0  0  0  0  0  0  0
  -17.7281   -5.6593    4.7715 C   0  0  0  0  0  0  0  0  0  0  0  0
  -17.5281   -6.3593    3.4715 C   0  0  0  0  0  0  0  0  0  0  0  0
  -13.4281   -6.6593    4.9715 C   0  0  0  0  0  0  0  0  0  0  0  0
  -14.6281   -7.3593    5.6715 N   0  0  0  0  0  0  0  0  0  0  0  0
  -12.3281   -6.8593    5.3715 O   0  0  0  0  0  0  0  0  0  0  0  0
  -18.8281   -6.5593    2.9715 C   0  0  0  0  0  0  0  0  0  0  0  0
  -18.8281   -4.9593    4.7715 N   0  0  0  0  0  0  0  0  0  0  0  0
  -19.9281   -7.0593    3.7715 C   0  0  0  0  0  0  0  0  0  0  0  0
  -19.8281   -5.8593    3.0715 N   0  0  0  0  0  0  0  0  0  0  0  0
  -19.8281   -4.7593    3.8715 C   0  0  0  0  0  0  0  0  0  0  0  0
  -19.9282   -3.5593    3.3715 O   0  0  0  0  0  0  0  0  0  0  0  0
  2  1  1  0
  3  1  1  0
  4  2  1  0
  5  4  1  0
  6  5  1  0
  7  3  1  0
  8  2  1  0
  8  7  1  0
  9  7  2  0
 10  6  1  0
 11  5  1  0
 12 10  1  0
 13 10  1  0
 13 12  1  0
 14 11  1  0
 14 13  1  0
 15 14  1  0
M  END
>  <ID>  (1) 
conformer_0

$$$$
