
     RDKit          3D

 14 15  0  0  0  0  0  0  0  0999 V2000
  -15.5594   -5.8506    4.0029 C   0  0  0  0  0  0  0  0  0  0  0  0
  -15.5594   -6.7506    5.1029 C   0  0  0  0  0  0  0  0  0  0  0  0
  -16.7594   -6.5506    5.9029 C   0  0  0  0  0  0  0  0  0  0  0  0
  -17.6594   -5.6506    5.3029 C   0  0  0  0  0  0  0  0  0  0  0  0
  -17.8594   -5.6506    3.9029 C   0  0  0  0  0  0  0  0  0  0  0  0
  -19.2594   -5.5506    3.5029 N   0  0  0  0  0  0  0  0  0  0  0  0
  -19.8594   -6.4506    2.7029 C   0  0  0  0  0  0  0  0  0  0  0  0
  -19.9594   -5.1506    4.6029 C   0  0  0  0  0  0  0  0  0  0  0  0
  -19.5594   -7.1506    1.8029 O   0  0  0  0  0  0  0  0  0  0  0  0
  -16.7594   -6.0506    3.2029 C   0  0  0  0  0  0  0  0  0  0  0  0
  -14.3594   -7.0506    5.7029 O   0  0  0  0  0  0  0  0  0  0  0  0
  -21.3594   -5.5506    4.6029 C   0  0  0  0  0  0  0  0  0  0  0  0
  -19.7594   -3.8506    5.0029 O   0  0  0  0  0  0  0  0  0  0  0  0
  -21.2594   -6.5506    3.2029 C   0  0  0  0  0  0  0  0  0  0  0  0
  2  1  2  0
  3  2  1  0
  4  3  2  0
  5  4  1  0
  6  5  1  0
  7  6  1  0
  8  6  1  0
  9  7  2  0
 10  1  1  0
 10  5  2  0
 11  2  1  0
 12  8  1  0
 13  8  1  0
 14  7  1  0
 14 12  2  0
M  END
>  <ID>  (1) 
conformer_0

$$$$
