
     RDKit          3D

  5  5  0  0  0  0  0  0  0  0999 V2000
  -15.5312   -6.8616    4.9968 C   0  0  0  0  0  0  0  0  0  0  0  0
  -15.0312   -5.4616    4.8968 C   0  0  0  0  0  0  0  0  0  0  0  0
  -16.9312   -6.8616    4.7968 C   0  0  0  0  0  0  0  0  0  0  0  0
  -17.6312   -5.5616    4.8968 C   0  0  0  0  0  0  0  0  0  0  0  0
  -16.5312   -4.5616    4.7968 C   0  0  0  0  0  0  0  0  0  0  0  0
  2  1  1  0
  3  1  1  0
  4  3  1  0
  5  2  1  0
  5  4  1  0
M  END
>  <ID>  (1) 
conformer_0

$$$$
