
     RDKit          3D

 17 18  0  0  0  0  0  0  0  0999 V2000
  -15.5594   -5.8506    4.0029 C   0  0  0  0  0  0  0  0  0  0  0  0
  -15.5594   -6.7506    5.1029 C   0  0  0  0  0  0  0  0  0  0  0  0
  -16.7594   -6.5506    5.9029 C   0  0  0  0  0  0  0  0  0  0  0  0
  -17.6594   -5.6506    5.2029 C   0  0  0  0  0  0  0  0  0  0  0  0
  -17.9594   -5.8506    3.9029 C   0  0  0  0  0  0  0  0  0  0  0  0
  -19.1594   -5.9506    3.2029 N   0  0  0  0  0  0  0  0  0  0  0  0
  -19.5594   -7.1506    2.6029 C   0  0  0  0  0  0  0  0  0  0  0  0
  -19.9594   -8.2506    3.5029 C   0  0  0  0  0  0  0  0  0  0  0  0
  -20.2594   -7.0506    1.3029 C   0  0  0  0  0  0  0  0  0  0  0  0
  -16.7594   -6.0506    3.2029 C   0  0  0  0  0  0  0  0  0  0  0  0
  -14.4594   -7.2506    5.8029 O   0  0  0  0  0  0  0  0  0  0  0  0
  -20.8594   -5.8506    1.4029 O   0  0  0  0  0  0  0  0  0  0  0  0
  -21.1594   -8.1506    1.4029 N   0  0  0  0  0  0  0  0  0  0  0  0
  -20.9594   -9.0506    2.5029 C   0  0  0  0  0  0  0  0  0  0  0  0
  -21.9594   -8.3506    0.2029 C   0  0  0  0  0  0  0  0  0  0  0  0
  -21.5594   -7.7506   -0.9971 C   0  0  0  0  0  0  0  0  0  0  0  0
  -22.6594   -7.7506   -1.9971 O   0  0  0  0  0  0  0  0  0  0  0  0
  2  1  2  0
  3  2  1  0
  4  3  2  0
  5  4  1  0
  6  5  1  0
  7  6  1  0
  8  7  1  0
  9  7  1  0
 10  1  1  0
 10  5  2  0
 11  2  1  0
 12  9  1  0
 13  9  1  0
 14  8  1  0
 14 13  1  0
 15 13  1  0
 16 15  1  0
 17 16  1  0
M  END
>  <ID>  (1) 
conformer_0

$$$$
