
     RDKit          3D

 15 17  0  0  0  0  0  0  0  0999 V2000
  -15.8602   -5.7271    4.3252 C   0  0  0  0  0  0  0  0  0  0  0  0
  -16.0602   -6.3271    5.5252 C   0  0  0  0  0  0  0  0  0  0  0  0
  -17.3602   -6.2271    6.0252 C   0  0  0  0  0  0  0  0  0  0  0  0
  -18.2602   -5.7271    5.1252 C   0  0  0  0  0  0  0  0  0  0  0  0
  -18.1602   -5.9271    3.7252 C   0  0  0  0  0  0  0  0  0  0  0  0
  -16.8602   -6.1271    3.3252 C   0  0  0  0  0  0  0  0  0  0  0  0
  -14.4602   -5.8271    3.9252 N   0  0  0  0  0  0  0  0  0  0  0  0
  -13.7602   -6.3271    5.0252 C   0  0  0  0  0  0  0  0  0  0  0  0
  -12.6602   -6.7271    5.6252 O   0  0  0  0  0  0  0  0  0  0  0  0
  -14.8602   -6.9271    5.9252 N   0  0  0  0  0  0  0  0  0  0  0  0
  -19.6602   -5.9271    5.6252 N   0  0  0  0  0  0  0  0  0  0  0  0
  -20.6602   -6.5271    4.9252 C   0  0  0  0  0  0  0  0  0  0  0  0
  -21.4602   -7.6271    5.4252 C   0  0  0  0  0  0  0  0  0  0  0  0
  -20.6602   -6.0271    3.6252 C   0  0  0  0  0  0  0  0  0  0  0  0
  -19.3602   -5.9271    3.0252 O   0  0  0  0  0  0  0  0  0  0  0  0
  2  1  1  0
  3  2  2  0
  4  3  1  0
  5  4  2  0
  6  1  2  0
  6  5  1  0
  7  1  1  0
  8  7  1  0
  9  8  2  0
 10  2  1  0
 10  8  1  0
 11  4  1  0
 12 11  1  0
 13 12  1  0
 14 12  1  0
 15  5  1  0
 15 14  1  0
M  END
>  <ID>  (1) 
conformer_0

$$$$
