
     RDKit          3D

 14 15  0  0  0  0  0  0  0  0999 V2000
  -15.5594   -5.8506    4.0029 C   0  0  0  0  0  0  0  0  0  0  0  0
  -15.5594   -6.7506    5.1029 C   0  0  0  0  0  0  0  0  0  0  0  0
  -16.7594   -6.5506    5.9029 C   0  0  0  0  0  0  0  0  0  0  0  0
  -17.6594   -5.6506    5.3029 C   0  0  0  0  0  0  0  0  0  0  0  0
  -18.0594   -5.7506    4.0029 C   0  0  0  0  0  0  0  0  0  0  0  0
  -19.3594   -5.6506    3.6029 N   0  0  0  0  0  0  0  0  0  0  0  0
  -19.9594   -6.4506    2.6029 C   0  0  0  0  0  0  0  0  0  0  0  0
  -20.1594   -5.5506    4.8029 C   0  0  0  0  0  0  0  0  0  0  0  0
  -14.4594   -7.1506    5.7029 O   0  0  0  0  0  0  0  0  0  0  0  0
  -19.3594   -7.2506    1.9029 O   0  0  0  0  0  0  0  0  0  0  0  0
  -16.8594   -5.9506    3.3029 C   0  0  0  0  0  0  0  0  0  0  0  0
  -21.3594   -6.3506    4.6029 C   0  0  0  0  0  0  0  0  0  0  0  0
  -21.4594   -6.8506    3.2029 C   0  0  0  0  0  0  0  0  0  0  0  0
  -21.4594   -8.3506    3.2029 N   0  0  0  0  0  0  0  0  0  0  0  0
  2  1  2  0
  3  2  1  0
  4  3  2  0
  5  4  1  0
  6  5  1  0
  7  6  1  0
  8  6  1  0
  9  2  1  0
 10  7  2  0
 11  1  1  0
 11  5  2  0
 12  8  2  0
 13  7  1  0
 13 12  1  0
 14 13  1  0
M  END
>  <ID>  (1) 
conformer_0

$$$$
