
     RDKit          3D

 14 17  0  0  0  0  0  0  0  0999 V2000
  -15.3281   -5.5593    4.4715 C   0  0  0  0  0  0  0  0  0  0  0  0
  -15.7281   -6.7593    5.2715 C   0  0  0  0  0  0  0  0  0  0  0  0
  -14.0281   -6.0593    3.9715 N   0  0  0  0  0  0  0  0  0  0  0  0
  -17.0281   -6.3593    5.8715 C   0  0  0  0  0  0  0  0  0  0  0  0
  -17.7281   -5.6593    4.7715 C   0  0  0  0  0  0  0  0  0  0  0  0
  -17.6281   -6.1593    3.4715 C   0  0  0  0  0  0  0  0  0  0  0  0
  -14.7281   -7.2593    5.8715 N   0  0  0  0  0  0  0  0  0  0  0  0
  -13.7281   -6.6593    5.1715 C   0  0  0  0  0  0  0  0  0  0  0  0
  -12.5281   -6.7593    5.6715 O   0  0  0  0  0  0  0  0  0  0  0  0
  -18.8281   -6.7593    2.8715 C   0  0  0  0  0  0  0  0  0  0  0  0
  -20.0282   -6.3593    3.6715 C   0  0  0  0  0  0  0  0  0  0  0  0
  -19.6282   -5.4593    2.9715 O   0  0  0  0  0  0  0  0  0  0  0  0
  -18.8281   -4.8593    5.0715 O   0  0  0  0  0  0  0  0  0  0  0  0
  -19.3281   -6.2593    5.1715 C   0  0  0  0  0  0  0  0  0  0  0  0
  2  1  1  0
  3  1  1  0
  4  2  1  0
  5  4  1  0
  6  5  1  0
  7  2  1  0
  8  3  1  0
  8  7  1  0
  9  8  2  0
 10  6  1  0
 11 10  1  0
 12 10  1  0
 12 11  1  0
 13  5  1  0
 14  5  1  0
 14 11  1  0
 14 13  1  0
M  END
>  <ID>  (1) 
conformer_0

$$$$
