
     RDKit          3D

 16 17  0  0  0  0  0  0  0  0999 V2000
  -15.5594   -5.8506    4.0029 C   0  0  0  0  0  0  0  0  0  0  0  0
  -15.5594   -6.7506    5.1029 C   0  0  0  0  0  0  0  0  0  0  0  0
  -16.6594   -6.6506    5.9029 C   0  0  0  0  0  0  0  0  0  0  0  0
  -17.6594   -5.8506    5.4029 C   0  0  0  0  0  0  0  0  0  0  0  0
  -17.8594   -5.5506    4.0029 C   0  0  0  0  0  0  0  0  0  0  0  0
  -19.1594   -5.5506    3.6029 N   0  0  0  0  0  0  0  0  0  0  0  0
  -19.6594   -6.4506    2.6029 C   0  0  0  0  0  0  0  0  0  0  0  0
  -20.0594   -5.5506    4.8029 C   0  0  0  0  0  0  0  0  0  0  0  0
  -16.7594   -5.9506    3.3029 C   0  0  0  0  0  0  0  0  0  0  0  0
  -14.2594   -6.9506    5.6029 O   0  0  0  0  0  0  0  0  0  0  0  0
  -21.1594   -6.5506    4.6029 C   0  0  0  0  0  0  0  0  0  0  0  0
  -20.0594   -4.6506    5.6029 O   0  0  0  0  0  0  0  0  0  0  0  0
  -21.0594   -7.0506    3.2029 C   0  0  0  0  0  0  0  0  0  0  0  0
  -21.2594   -8.4506    2.8029 C   0  0  0  0  0  0  0  0  0  0  0  0
  -21.4594   -7.3506    5.7029 C   0  0  0  0  0  0  0  0  0  0  0  0
  -22.0594   -8.2506    6.3029 N   0  0  0  0  0  0  0  0  0  0  0  0
  2  1  2  0
  3  2  1  0
  4  3  2  0
  5  4  1  0
  6  5  1  0
  7  6  1  0
  8  6  1  0
  9  1  1  0
  9  5  2  0
 10  2  1  0
 11  8  1  0
 12  8  2  0
 13  7  1  0
 13 11  1  0
 14 13  1  0
 15 11  1  0
 16 15  2  0
M  END
>  <ID>  (1) 
conformer_0

$$$$
