
     RDKit          3D

 11 11  0  0  0  0  0  0  0  0999 V2000
  -15.5594   -5.8506    4.0029 C   0  0  0  0  0  0  0  0  0  0  0  0
  -15.6594   -6.5506    5.3029 C   0  0  0  0  0  0  0  0  0  0  0  0
  -16.9594   -6.4506    5.9029 C   0  0  0  0  0  0  0  0  0  0  0  0
  -17.8594   -5.7506    5.0029 C   0  0  0  0  0  0  0  0  0  0  0  0
  -17.9594   -6.2506    3.7029 C   0  0  0  0  0  0  0  0  0  0  0  0
  -19.1594   -6.2506    3.1029 N   0  0  0  0  0  0  0  0  0  0  0  0
  -19.7594   -7.0506    2.1029 C   0  0  0  0  0  0  0  0  0  0  0  0
  -20.7594   -6.6506    1.5029 O   0  0  0  0  0  0  0  0  0  0  0  0
  -19.6594   -8.4506    2.6029 C   0  0  0  0  0  0  0  0  0  0  0  0
  -14.5594   -7.1506    5.8029 O   0  0  0  0  0  0  0  0  0  0  0  0
  -16.6594   -6.1506    3.2029 C   0  0  0  0  0  0  0  0  0  0  0  0
  2  1  2  0
  3  2  1  0
  4  3  2  0
  5  4  1  0
  6  5  1  0
  7  6  1  0
  8  7  2  0
  9  7  1  0
 10  2  1  0
 11  1  1  0
 11  5  2  0
M  END
>  <ID>  (1) 
conformer_0

$$$$
