
     RDKit          3D

 13 14  0  0  0  0  0  0  0  0999 V2000
  -15.5594   -5.8506    4.0029 C   0  0  0  0  0  0  0  0  0  0  0  0
  -15.5594   -6.7506    5.1029 C   0  0  0  0  0  0  0  0  0  0  0  0
  -16.6594   -6.6506    5.9029 C   0  0  0  0  0  0  0  0  0  0  0  0
  -17.6594   -5.8506    5.4029 C   0  0  0  0  0  0  0  0  0  0  0  0
  -17.8594   -5.5506    4.0029 C   0  0  0  0  0  0  0  0  0  0  0  0
  -19.1594   -5.5506    3.6029 N   0  0  0  0  0  0  0  0  0  0  0  0
  -19.6594   -6.4506    2.6029 C   0  0  0  0  0  0  0  0  0  0  0  0
  -20.0594   -5.5506    4.8029 C   0  0  0  0  0  0  0  0  0  0  0  0
  -16.7594   -5.9506    3.3029 C   0  0  0  0  0  0  0  0  0  0  0  0
  -14.3594   -6.9506    5.8029 O   0  0  0  0  0  0  0  0  0  0  0  0
  -20.1594   -4.5506    5.5029 O   0  0  0  0  0  0  0  0  0  0  0  0
  -21.0594   -6.6506    4.6029 C   0  0  0  0  0  0  0  0  0  0  0  0
  -21.0594   -7.0506    3.2029 C   0  0  0  0  0  0  0  0  0  0  0  0
  2  1  2  0
  3  2  1  0
  4  3  2  0
  5  4  1  0
  6  5  1  0
  7  6  1  0
  8  6  1  0
  9  1  1  0
  9  5  2  0
 10  2  1  0
 11  8  2  0
 12  8  1  0
 13  7  1  0
 13 12  1  0
M  END
>  <ID>  (1) 
conformer_0

$$$$
