
     RDKit          3D

 16 17  0  0  0  0  0  0  0  0999 V2000
  -15.5594   -5.8506    4.0029 C   0  0  0  0  0  0  0  0  0  0  0  0
  -15.5594   -6.7506    5.1029 C   0  0  0  0  0  0  0  0  0  0  0  0
  -16.6594   -6.4506    6.0029 C   0  0  0  0  0  0  0  0  0  0  0  0
  -17.8594   -6.1506    5.5029 C   0  0  0  0  0  0  0  0  0  0  0  0
  -17.9594   -5.8506    4.1029 C   0  0  0  0  0  0  0  0  0  0  0  0
  -19.2594   -5.5506    3.6029 N   0  0  0  0  0  0  0  0  0  0  0  0
  -19.8594   -6.1506    2.5029 C   0  0  0  0  0  0  0  0  0  0  0  0
  -16.8594   -5.9506    3.3029 C   0  0  0  0  0  0  0  0  0  0  0  0
  -20.1594   -5.5506    4.8029 C   0  0  0  0  0  0  0  0  0  0  0  0
  -14.2594   -6.9506    5.7029 O   0  0  0  0  0  0  0  0  0  0  0  0
  -21.3594   -6.2506    4.5029 C   0  0  0  0  0  0  0  0  0  0  0  0
  -20.1594   -7.5506    2.7029 C   0  0  0  0  0  0  0  0  0  0  0  0
  -20.7594   -5.4506    1.9029 O   0  0  0  0  0  0  0  0  0  0  0  0
  -21.3594   -7.4506    3.6029 N   0  0  0  0  0  0  0  0  0  0  0  0
  -21.8594   -8.7506    3.9029 C   0  0  0  0  0  0  0  0  0  0  0  0
  -21.3594   -9.7506    2.9029 C   0  0  0  0  0  0  0  0  0  0  0  0
  2  1  2  0
  3  2  1  0
  4  3  2  0
  5  4  1  0
  6  5  1  0
  7  6  1  0
  8  1  1  0
  8  5  2  0
  9  6  1  0
 10  2  1  0
 11  9  1  0
 12  7  1  0
 13  7  2  0
 14 11  1  0
 14 12  1  0
 15 14  1  0
 16 15  1  0
M  END
>  <ID>  (1) 
conformer_0

$$$$
