
     RDKit          3D

 14 15  0  0  0  0  0  0  0  0999 V2000
  -15.5594   -5.8506    4.0029 C   0  0  0  0  0  0  0  0  0  0  0  0
  -15.6594   -6.5506    5.3029 C   0  0  0  0  0  0  0  0  0  0  0  0
  -16.9594   -6.4506    5.9029 C   0  0  0  0  0  0  0  0  0  0  0  0
  -17.9594   -5.7506    5.1029 C   0  0  0  0  0  0  0  0  0  0  0  0
  -17.9594   -6.0506    3.7029 C   0  0  0  0  0  0  0  0  0  0  0  0
  -19.0594   -6.3506    3.0029 N   0  0  0  0  0  0  0  0  0  0  0  0
  -20.2594   -5.5506    3.2029 C   0  0  0  0  0  0  0  0  0  0  0  0
  -16.6594   -6.1506    3.2029 C   0  0  0  0  0  0  0  0  0  0  0  0
  -19.0594   -7.3506    2.0029 C   0  0  0  0  0  0  0  0  0  0  0  0
  -14.6594   -7.1506    5.9029 O   0  0  0  0  0  0  0  0  0  0  0  0
  -20.0594   -4.2506    3.4029 O   0  0  0  0  0  0  0  0  0  0  0  0
  -20.3594   -7.1506    1.3029 C   0  0  0  0  0  0  0  0  0  0  0  0
  -21.1594   -5.9506    2.1029 C   0  0  0  0  0  0  0  0  0  0  0  0
  -21.2594   -8.2506    1.1029 N   0  0  0  0  0  0  0  0  0  0  0  0
  2  1  2  0
  3  2  1  0
  4  3  2  0
  5  4  1  0
  6  5  1  0
  7  6  1  0
  8  1  1  0
  8  5  2  0
  9  6  1  0
 10  2  1  0
 11  7  1  0
 12  9  1  0
 13  7  1  0
 13 12  1  0
 14 12  1  0
M  END
>  <ID>  (1) 
conformer_0

$$$$
