
     RDKit          3D

 15 16  0  0  0  0  0  0  0  0999 V2000
  -15.5594   -5.8506    4.0029 C   0  0  0  0  0  0  0  0  0  0  0  0
  -15.6594   -6.5506    5.3029 C   0  0  0  0  0  0  0  0  0  0  0  0
  -16.9594   -6.4506    5.9029 C   0  0  0  0  0  0  0  0  0  0  0  0
  -17.9594   -5.7506    5.1029 C   0  0  0  0  0  0  0  0  0  0  0  0
  -17.9594   -6.0506    3.7029 C   0  0  0  0  0  0  0  0  0  0  0  0
  -19.0594   -6.3506    3.0029 N   0  0  0  0  0  0  0  0  0  0  0  0
  -19.5594   -7.3506    2.3029 C   0  0  0  0  0  0  0  0  0  0  0  0
  -16.7594   -6.1506    3.2029 C   0  0  0  0  0  0  0  0  0  0  0  0
  -20.3594   -7.2506    1.1029 C   0  0  0  0  0  0  0  0  0  0  0  0
  -19.7594   -8.5506    3.1029 C   0  0  0  0  0  0  0  0  0  0  0  0
  -14.6594   -7.1506    5.9029 O   0  0  0  0  0  0  0  0  0  0  0  0
  -21.2594   -6.3506    1.0029 O   0  0  0  0  0  0  0  0  0  0  0  0
  -20.3594   -8.5506    0.6029 N   0  0  0  0  0  0  0  0  0  0  0  0
  -20.9594   -9.3506    2.8029 C   0  0  0  0  0  0  0  0  0  0  0  0
  -21.0594   -9.5506    1.3029 C   0  0  0  0  0  0  0  0  0  0  0  0
  2  1  2  0
  3  2  1  0
  4  3  2  0
  5  4  1  0
  6  5  1  0
  7  6  1  0
  8  1  1  0
  8  5  2  0
  9  7  1  0
 10  7  1  0
 11  2  1  0
 12  9  2  0
 13  9  1  0
 14 10  1  0
 15 13  1  0
 15 14  1  0
M  END
>  <ID>  (1) 
conformer_0

$$$$
