
     RDKit          3D

 16 18  0  0  0  0  0  0  0  0999 V2000
  -15.5594   -5.8506    4.0029 C   0  0  0  0  0  0  0  0  0  0  0  0
  -15.5594   -6.7506    5.1029 C   0  0  0  0  0  0  0  0  0  0  0  0
  -16.7594   -6.5506    5.9029 C   0  0  0  0  0  0  0  0  0  0  0  0
  -17.6594   -5.6506    5.3029 C   0  0  0  0  0  0  0  0  0  0  0  0
  -18.0594   -5.7506    4.0029 C   0  0  0  0  0  0  0  0  0  0  0  0
  -19.3594   -5.4506    3.6029 N   0  0  0  0  0  0  0  0  0  0  0  0
  -20.0594   -6.4506    2.8029 C   0  0  0  0  0  0  0  0  0  0  0  0
  -19.9594   -4.9506    4.8029 C   0  0  0  0  0  0  0  0  0  0  0  0
  -19.8594   -3.6506    4.9029 O   0  0  0  0  0  0  0  0  0  0  0  0
  -14.4594   -7.1506    5.7029 O   0  0  0  0  0  0  0  0  0  0  0  0
  -17.5594   -6.6506    3.2029 C   0  0  0  0  0  0  0  0  0  0  0  0
  -21.2594   -5.6506    5.0029 C   0  0  0  0  0  0  0  0  0  0  0  0
  -14.4594   -5.6506    3.3029 F   0  0  0  0  0  0  0  0  0  0  0  0
  -21.4594   -6.4506    3.8029 C   0  0  0  0  0  0  0  0  0  0  0  0
  -16.7594   -5.6506    3.4029 C   0  0  0  0  0  3  0  0  0  0  0  0
  -19.7594   -6.9506    1.8029 O   0  0  0  0  0  0  0  0  0  0  0  0
  2  1  2  0
  3  2  1  0
  4  3  2  0
  5  4  1  0
  6  5  1  0
  7  6  1  0
  8  6  1  0
  9  8  1  0
 10  2  1  0
 11  5  1  0
 12  8  1  0
 13  1  1  0
 14  7  1  0
 14 12  2  0
 15  1  1  0
 15  5  1  0
 15 11  1  0
 16  7  2  0
M  END
>  <ID>  (1) 
conformer_0

$$$$
