
     RDKit          3D

 15 16  0  0  0  0  0  0  0  0999 V2000
  -15.5594   -5.8506    4.0029 C   0  0  0  0  0  0  0  0  0  0  0  0
  -15.6594   -6.5506    5.3029 C   0  0  0  0  0  0  0  0  0  0  0  0
  -16.9594   -6.4506    5.9029 C   0  0  0  0  0  0  0  0  0  0  0  0
  -17.9594   -5.7506    5.1029 C   0  0  0  0  0  0  0  0  0  0  0  0
  -17.9594   -6.0506    3.7029 C   0  0  0  0  0  0  0  0  0  0  0  0
  -19.0594   -6.3506    3.0029 N   0  0  0  0  0  0  0  0  0  0  0  0
  -20.2594   -5.5506    3.2029 C   0  0  0  0  0  0  0  0  0  0  0  0
  -16.6594   -6.1506    3.2029 C   0  0  0  0  0  0  0  0  0  0  0  0
  -19.0594   -7.3506    2.0029 C   0  0  0  0  0  0  0  0  0  0  0  0
  -14.6594   -7.2506    5.7029 O   0  0  0  0  0  0  0  0  0  0  0  0
  -20.0594   -4.3506    3.6029 O   0  0  0  0  0  0  0  0  0  0  0  0
  -21.2594   -6.0506    2.2029 C   0  0  0  0  0  0  0  0  0  0  0  0
  -20.6594   -7.1506    1.4029 C   0  0  0  0  0  0  0  0  0  0  0  0
  -18.8594   -8.5506    2.3029 O   0  0  0  0  0  0  0  0  0  0  0  0
  -21.4594   -8.3506    1.2029 N   0  0  0  0  0  0  0  0  0  0  0  0
  2  1  2  0
  3  2  1  0
  4  3  2  0
  5  4  1  0
  6  5  1  0
  7  6  1  0
  8  1  1  0
  8  5  2  0
  9  6  1  0
 10  2  1  0
 11  7  2  0
 12  7  1  0
 13  9  1  0
 13 12  1  0
 14  9  1  0
 15 13  1  0
M  END
>  <ID>  (1) 
conformer_0

$$$$
