
     RDKit          3D

 15 16  0  0  0  0  0  0  0  0999 V2000
  -15.5594   -5.8506    4.0029 C   0  0  0  0  0  0  0  0  0  0  0  0
  -15.5594   -6.7506    5.1029 C   0  0  0  0  0  0  0  0  0  0  0  0
  -16.7594   -6.5506    5.9029 C   0  0  0  0  0  0  0  0  0  0  0  0
  -17.6594   -5.6506    5.3029 C   0  0  0  0  0  0  0  0  0  0  0  0
  -18.0594   -5.7506    4.0029 C   0  0  0  0  0  0  0  0  0  0  0  0
  -19.3594   -5.6506    3.6029 N   0  0  0  0  0  0  0  0  0  0  0  0
  -19.9594   -6.4506    2.6029 C   0  0  0  0  0  0  0  0  0  0  0  0
  -20.1594   -5.5506    4.8029 C   0  0  0  0  0  0  0  0  0  0  0  0
  -19.1594   -7.4506    2.0029 C   0  0  0  0  0  0  0  0  0  0  0  0
  -14.3594   -6.9506    5.7029 O   0  0  0  0  0  0  0  0  0  0  0  0
  -21.2594   -6.9506    3.1029 C   0  0  0  0  0  0  0  0  0  0  0  0
  -20.2594   -4.5506    5.5029 O   0  0  0  0  0  0  0  0  0  0  0  0
  -16.8594   -6.0506    3.3029 C   0  0  0  0  0  0  0  0  0  0  0  0
  -21.5594   -6.3506    4.4029 C   0  0  0  0  0  0  0  0  0  0  0  0
  -19.3594   -8.8506    2.4029 O   0  0  0  0  0  0  0  0  0  0  0  0
  2  1  2  0
  3  2  1  0
  4  3  2  0
  5  4  1  0
  6  5  1  0
  7  6  1  0
  8  6  1  0
  9  7  1  0
 10  2  1  0
 11  7  1  0
 12  8  2  0
 13  1  1  0
 13  5  2  0
 14  8  1  0
 14 11  2  0
 15  9  1  0
M  END
>  <ID>  (1) 
conformer_0

$$$$
