
     RDKit          3D

 16 18  0  0  0  0  0  0  0  0999 V2000
  -15.8017   -5.6377    4.2621 C   0  0  0  0  0  0  0  0  0  0  0  0
  -15.6017   -6.5377    5.3621 C   0  0  0  0  0  0  0  0  0  0  0  0
  -17.2017   -5.8377    3.7621 C   0  0  0  0  0  0  0  0  0  0  0  0
  -18.2017   -5.9377    4.6621 C   0  0  0  0  0  0  0  0  0  0  0  0
  -18.0017   -6.0377    6.0621 C   0  0  0  0  0  0  0  0  0  0  0  0
  -16.7017   -6.6377    6.1621 C   0  0  0  0  0  0  0  0  0  0  0  0
  -14.4017   -7.0377    5.6621 O   0  0  0  0  0  0  0  0  0  0  0  0
  -19.5017   -5.3377    4.2621 N   0  0  0  0  0  0  0  0  0  0  0  0
  -20.0017   -5.6377    3.0621 C   0  0  0  0  0  0  0  0  0  0  0  0
  -19.5017   -6.4377    2.2621 O   0  0  0  0  0  0  0  0  0  0  0  0
  -20.3017   -5.2377    5.4621 C   0  0  0  0  0  0  0  0  0  0  0  0
  -21.0017   -4.7377    2.5621 C   0  0  0  0  0  0  0  0  0  0  0  0
  -20.1017   -4.1377    6.1621 O   0  0  0  0  0  0  0  0  0  0  0  0
  -21.6017   -5.7377    3.3621 C   0  0  0  0  0  0  0  0  0  0  0  0
  -21.7017   -5.2377    4.9621 C   0  0  0  0  0  0  0  0  0  0  0  0
  -22.1017   -7.0377    3.0621 N   0  0  0  0  0  0  0  0  0  0  0  0
  2  1  2  0
  3  1  1  0
  4  3  2  0
  5  4  1  0
  6  2  1  0
  6  5  2  0
  7  2  1  0
  8  4  1  0
  9  8  1  0
 10  9  1  0
 11  8  1  0
 12  9  1  0
 13 11  1  0
 14  9  1  0
 14 12  1  0
 15 11  1  0
 15 14  1  0
 16 14  1  0
M  END
>  <ID>  (1) 
conformer_0

$$$$
