
     RDKit          3D

 14 14  0  0  0  0  0  0  0  0999 V2000
  -15.8602   -5.7271    4.3252 C   0  0  0  0  0  0  0  0  0  0  0  0
  -16.0602   -6.6271    5.4252 C   0  0  0  0  0  0  0  0  0  0  0  0
  -17.3602   -6.4271    5.9252 C   0  0  0  0  0  0  0  0  0  0  0  0
  -18.2602   -5.8271    5.1252 C   0  0  0  0  0  0  0  0  0  0  0  0
  -18.2602   -6.0271    3.7252 C   0  0  0  0  0  0  0  0  0  0  0  0
  -19.3602   -6.0271    3.0252 N   0  0  0  0  0  0  0  0  0  0  0  0
  -16.8602   -6.0271    3.3252 C   0  0  0  0  0  0  0  0  0  0  0  0
  -20.2602   -6.6271    2.3252 C   0  0  0  0  0  0  0  0  0  0  0  0
  -21.6602   -6.3271    2.3252 C   0  0  0  0  0  0  0  0  0  0  0  0
  -14.5602   -5.8271    3.8252 N   0  0  0  0  0  0  0  0  0  0  0  0
  -14.9602   -7.2271    5.8252 O   0  0  0  0  0  0  0  0  0  0  0  0
  -19.9602   -7.8271    1.5252 C   0  0  0  0  0  0  0  0  0  0  0  0
  -19.4602   -8.9271    2.2252 O   0  0  0  0  0  0  0  0  0  0  0  0
  -21.8602   -4.9271    2.7252 O   0  0  0  0  0  0  0  0  0  0  0  0
  2  1  2  0
  3  2  1  0
  4  3  2  0
  5  4  1  0
  6  5  1  0
  7  1  1  0
  7  5  2  0
  8  6  1  0
  9  8  1  0
 10  1  1  0
 11  2  1  0
 12  8  1  0
 13 12  1  0
 14  9  1  0
M  END
>  <ID>  (1) 
conformer_0

$$$$
