
     RDKit          3D

 13 14  0  0  0  0  0  0  0  0999 V2000
  -15.5594   -5.8506    4.0029 C   0  0  0  0  0  0  0  0  0  0  0  0
  -15.5594   -6.7506    5.1029 C   0  0  0  0  0  0  0  0  0  0  0  0
  -16.6594   -6.6506    5.9029 C   0  0  0  0  0  0  0  0  0  0  0  0
  -17.6594   -5.8506    5.5029 C   0  0  0  0  0  0  0  0  0  0  0  0
  -17.9594   -5.8506    4.1029 C   0  0  0  0  0  0  0  0  0  0  0  0
  -19.2594   -5.3506    3.8029 N   0  0  0  0  0  0  0  0  0  0  0  0
  -20.1594   -6.0506    2.9029 C   0  0  0  0  0  0  0  0  0  0  0  0
  -16.8594   -6.0506    3.3029 C   0  0  0  0  0  0  0  0  0  0  0  0
  -19.9594   -5.0506    5.0029 C   0  0  0  0  0  0  0  0  0  0  0  0
  -14.2594   -6.9506    5.6029 O   0  0  0  0  0  0  0  0  0  0  0  0
  -19.6594   -3.8506    5.4029 O   0  0  0  0  0  0  0  0  0  0  0  0
  -21.3594   -5.4506    4.9029 C   0  0  0  0  0  0  0  0  0  0  0  0
  -21.5594   -6.1506    3.4029 C   0  0  0  0  0  0  0  0  0  0  0  0
  2  1  2  0
  3  2  1  0
  4  3  2  0
  5  4  1  0
  6  5  1  0
  7  6  1  0
  8  1  1  0
  8  5  2  0
  9  6  1  0
 10  2  1  0
 11  9  1  0
 12  9  1  0
 13  7  2  0
 13 12  1  0
M  END
>  <ID>  (1) 
conformer_0

$$$$
