
     RDKit          3D

 14 16  0  0  0  0  0  0  0  0999 V2000
  -15.5594   -5.8506    4.0029 C   0  0  0  0  0  0  0  0  0  0  0  0
  -15.5594   -6.7506    5.1029 C   0  0  0  0  0  0  0  0  0  0  0  0
  -16.6594   -6.4506    6.0029 C   0  0  0  0  0  0  0  0  0  0  0  0
  -17.6594   -5.7506    5.4029 C   0  0  0  0  0  0  0  0  0  0  0  0
  -17.9594   -5.8506    4.0029 C   0  0  0  0  0  0  0  0  0  0  0  0
  -19.2594   -5.4506    3.7029 N   0  0  0  0  0  0  0  0  0  0  0  0
  -20.2594   -6.1506    2.9029 C   0  0  0  0  0  0  0  0  0  0  0  0
  -19.8594   -5.0506    4.9029 C   0  0  0  0  0  0  0  0  0  0  0  0
  -16.7594   -6.0506    3.2029 C   0  0  0  0  0  0  0  0  0  0  0  0
  -14.2594   -6.9506    5.6029 O   0  0  0  0  0  0  0  0  0  0  0  0
  -21.2594   -5.1506    5.0029 C   0  0  0  0  0  0  0  0  0  0  0  0
  -21.3594   -6.9506    3.1029 C   0  0  0  0  0  0  0  0  0  0  0  0
  -20.5594   -6.3506    5.4029 C   0  0  0  0  0  0  0  0  0  0  0  0
  -21.4594   -5.5506    2.7029 C   0  0  0  0  0  0  0  0  0  0  0  0
  2  1  2  0
  3  2  1  0
  4  3  2  0
  5  4  1  0
  6  5  1  0
  7  6  1  0
  8  6  1  0
  9  1  1  0
  9  5  2  0
 10  2  1  0
 11  8  1  0
 12  7  1  0
 13  8  1  0
 13 11  1  0
 14  7  1  0
 14 12  1  0
M  END
>  <ID>  (1) 
conformer_0

$$$$
