
     RDKit          3D

 12 13  0  0  0  0  0  0  0  0999 V2000
  -15.8602   -5.7271    4.3252 C   0  0  0  0  0  0  0  0  0  0  0  0
  -16.0602   -6.6271    5.4252 C   0  0  0  0  0  0  0  0  0  0  0  0
  -17.3602   -6.4271    6.0252 C   0  0  0  0  0  0  0  0  0  0  0  0
  -18.2602   -5.7271    5.2252 C   0  0  0  0  0  0  0  0  0  0  0  0
  -18.1602   -5.5271    3.8252 C   0  0  0  0  0  0  0  0  0  0  0  0
  -16.8602   -5.9271    3.3252 C   0  0  0  0  0  0  0  0  0  0  0  0
  -14.4602   -5.8271    3.8252 N   0  0  0  0  0  0  0  0  0  0  0  0
  -13.7602   -6.4271    4.9252 C   0  0  0  0  0  0  0  0  0  0  0  0
  -12.5602   -5.9271    5.5252 N   0  0  0  0  0  0  0  0  0  0  0  0
  -14.7602   -7.0271    5.8252 N   0  0  0  0  0  2  0  0  0  0  0  0
  -12.0602   -7.1271    6.2252 O   0  0  0  0  0  0  0  0  0  0  0  0
  -19.0602   -4.7271    5.9252 F   0  0  0  0  0  0  0  0  0  0  0  0
  2  1  1  0
  3  2  2  0
  4  3  1  0
  5  4  2  0
  6  1  2  0
  6  5  1  0
  7  1  1  0
  8  7  2  0
  9  8  1  0
 10  2  1  0
 10  8  1  0
 11  9  1  0
 12  4  1  0
M  END
>  <ID>  (1) 
conformer_0

$$$$
