
     RDKit          3D

  9  8  0  0  0  0  0  0  0  0999 V2000
  -18.4532   -7.4866    4.3069 C   0  0  0  0  0  0  0  0  0  0  0  0
  -17.9532   -6.3866    5.0069 C   0  0  0  0  0  0  0  0  0  0  0  0
  -16.6532   -6.3866    5.7069 C   0  0  0  0  0  0  0  0  0  0  0  0
  -18.2532   -4.9866    4.6069 C   0  0  0  0  0  0  0  0  0  0  0  0
  -15.5532   -6.6866    5.8069 N   0  0  0  0  0  0  0  0  0  0  0  0
  -14.3532   -6.4866    5.1069 C   0  0  0  0  0  0  0  0  0  0  0  0
  -14.6532   -5.7866    4.0069 N   0  0  0  0  0  0  0  0  0  0  0  0
  -13.1532   -6.5866    5.5069 N   0  0  0  0  0  0  0  0  0  0  0  0
  -11.8532   -6.7866    5.1069 O   0  0  0  0  0  0  0  0  0  0  0  0
  2  1  1  0
  3  2  1  0
  4  2  1  0
  5  3  1  0
  6  5  1  0
  7  6  2  0
  8  6  1  0
  9  8  1  0
M  END
>  <ID>  (1) 
conformer_0

$$$$
