
     RDKit          3D

 16 19  0  0  0  0  0  0  0  0999 V2000
  -15.5594   -5.8506    4.0029 C   0  0  0  0  0  0  0  0  0  0  0  0
  -15.6594   -6.5506    5.3029 C   0  0  0  0  0  0  0  0  0  0  0  0
  -16.9594   -6.4506    5.9029 C   0  0  0  0  0  0  0  0  0  0  0  0
  -17.9594   -5.7506    5.1029 C   0  0  0  0  0  0  0  0  0  0  0  0
  -17.9594   -6.0506    3.7029 C   0  0  0  0  0  0  0  0  0  0  0  0
  -19.1594   -6.2506    3.0029 N   0  0  0  0  0  0  0  0  0  0  0  0
  -19.3594   -7.2506    2.1029 C   0  0  0  0  0  0  0  0  0  0  0  0
  -20.3594   -5.6506    3.5029 C   0  0  0  0  0  0  0  0  0  0  0  0
  -16.7594   -6.1506    3.3029 C   0  0  0  0  0  0  0  0  0  0  0  0
  -14.6594   -7.2506    5.8029 O   0  0  0  0  0  0  0  0  0  0  0  0
  -20.3594   -4.4506    3.9029 O   0  0  0  0  0  0  0  0  0  0  0  0
  -21.4594   -6.6506    3.4029 C   0  0  0  0  0  0  0  0  0  0  0  0
  -20.4594   -7.0506    1.1029 C   0  0  0  0  0  0  0  0  0  0  0  0
  -21.6594   -7.1506    2.0029 N   0  0  0  0  0  0  0  0  0  0  0  0
  -21.1594   -7.8506    3.1029 C   0  0  0  0  0  0  0  0  0  0  0  0
  -19.7594   -8.5506    2.7029 C   0  0  0  0  0  0  0  0  0  0  0  0
  2  1  2  0
  3  2  1  0
  4  3  2  0
  5  4  1  0
  6  5  1  0
  7  6  1  0
  8  6  1  0
  9  1  1  0
  9  5  2  0
 10  2  1  0
 11  8  2  0
 12  8  1  0
 13  7  1  0
 14 12  1  0
 14 13  1  0
 15 12  1  0
 15 14  1  0
 16  7  1  0
 16 15  1  0
M  END
>  <ID>  (1) 
conformer_0

$$$$
