
     RDKit          3D

  8  7  0  0  0  0  0  0  0  0999 V2000
  -14.9076   -6.3895    5.2100 C   0  0  0  0  0  0  0  0  0  0  0  0
  -16.3076   -6.6895    4.9100 C   0  0  0  0  0  0  0  0  0  0  0  0
  -13.9076   -6.4895    4.2100 N   0  0  0  0  0  0  0  0  0  0  0  0
  -17.4076   -6.0895    5.7100 C   0  0  0  0  0  0  0  0  0  0  0  0
  -18.7076   -6.4895    5.5100 C   0  0  0  0  0  0  0  0  0  0  0  0
  -19.0076   -7.4895    4.5100 C   0  0  0  0  0  0  0  0  0  0  0  0
  -12.8076   -6.4895    3.8100 N   0  0  0  0  0  0  0  0  0  0  0  0
  -11.4076   -6.7895    3.8100 C   0  0  0  0  0  3  0  0  0  0  0  0
  2  1  1  0
  3  1  2  3
  4  2  1  0
  5  4  2  3
  6  5  1  0
  7  3  1  0
  8  7  2  0
M  END
>  <ID>  (1) 
conformer_0

$$$$
