
     RDKit          3D

 15 16  0  0  0  0  0  0  0  0999 V2000
  -15.5594   -5.8506    4.0029 C   0  0  0  0  0  0  0  0  0  0  0  0
  -15.6594   -6.5506    5.3029 C   0  0  0  0  0  0  0  0  0  0  0  0
  -16.9594   -6.4506    5.9029 C   0  0  0  0  0  0  0  0  0  0  0  0
  -17.9594   -5.7506    5.1029 C   0  0  0  0  0  0  0  0  0  0  0  0
  -17.9594   -6.0506    3.7029 C   0  0  0  0  0  0  0  0  0  0  0  0
  -19.1594   -6.2506    3.0029 N   0  0  0  0  0  0  0  0  0  0  0  0
  -19.1594   -7.2506    2.1029 C   0  0  0  0  0  0  0  0  0  0  0  0
  -20.3594   -5.5506    3.4029 C   0  0  0  0  0  0  0  0  0  0  0  0
  -16.6594   -6.2506    3.2029 C   0  0  0  0  0  0  0  0  0  0  0  0
  -14.6594   -7.1506    5.9029 O   0  0  0  0  0  0  0  0  0  0  0  0
  -20.3594   -7.1506    1.3029 C   0  0  0  0  0  0  0  0  0  0  0  0
  -20.3594   -4.3506    3.0029 O   0  0  0  0  0  0  0  0  0  0  0  0
  -21.4594   -6.5506    3.4029 C   0  0  0  0  0  0  0  0  0  0  0  0
  -21.6594   -7.2506    2.1029 C   0  0  0  0  0  0  0  0  0  0  0  0
  -22.8594   -7.4506    1.5029 N   0  0  0  0  0  0  0  0  0  0  0  0
  2  1  2  0
  3  2  1  0
  4  3  2  0
  5  4  1  0
  6  5  1  0
  7  6  1  0
  8  6  1  0
  9  1  1  0
  9  5  2  0
 10  2  1  0
 11  7  1  0
 12  8  2  0
 13  8  1  0
 14 11  1  0
 14 13  1  0
 15 14  1  0
M  END
>  <ID>  (1) 
conformer_0

$$$$
