
     RDKit          3D

 10 11  0  0  0  0  0  0  0  0999 V2000
  -15.8602   -5.7271    4.3252 C   0  0  0  0  0  0  0  0  0  0  0  0
  -16.0602   -6.6271    5.4252 C   0  0  0  0  0  0  0  0  0  0  0  0
  -17.3602   -6.4271    6.0252 C   0  0  0  0  0  0  0  0  0  0  0  0
  -18.2602   -5.7271    5.2252 C   0  0  0  0  0  0  0  0  0  0  0  0
  -18.1602   -5.8271    3.8252 C   0  0  0  0  0  0  0  0  0  0  0  0
  -16.9602   -6.1271    3.3252 C   0  0  0  0  0  0  0  0  0  0  0  0
  -14.5602   -5.7271    3.7252 N   0  0  0  0  0  0  0  0  0  0  0  0
  -14.8602   -7.1271    5.8252 N   0  0  0  0  0  0  0  0  0  0  0  0
  -13.8602   -6.5271    5.0252 C   0  0  0  0  0  0  0  0  0  0  0  0
  -12.8602   -5.8271    5.5252 O   0  0  0  0  0  0  0  0  0  0  0  0
  2  1  1  0
  3  2  2  0
  4  3  1  0
  5  4  2  0
  6  1  2  0
  6  5  1  0
  7  1  1  0
  8  2  1  0
  9  7  1  0
  9  8  1  0
 10  9  1  0
M  END
>  <ID>  (1) 
conformer_0

$$$$
