
     RDKit          3D

 16 17  0  0  0  0  0  0  0  0999 V2000
  -15.5594   -5.8506    4.0029 C   0  0  0  0  0  0  0  0  0  0  0  0
  -15.6594   -6.5506    5.3029 C   0  0  0  0  0  0  0  0  0  0  0  0
  -16.9594   -6.4506    5.9029 C   0  0  0  0  0  0  0  0  0  0  0  0
  -17.9594   -5.7506    5.1029 C   0  0  0  0  0  0  0  0  0  0  0  0
  -17.9594   -6.0506    3.7029 C   0  0  0  0  0  0  0  0  0  0  0  0
  -19.2594   -5.8506    3.2029 N   0  0  0  0  0  0  0  0  0  0  0  0
  -20.1594   -5.3506    4.2029 C   0  0  0  0  0  0  0  0  0  0  0  0
  -16.7594   -6.1506    3.2029 C   0  0  0  0  0  0  0  0  0  0  0  0
  -20.0594   -6.5506    2.3029 C   0  0  0  0  0  0  0  0  0  0  0  0
  -14.5594   -7.1506    5.8029 O   0  0  0  0  0  0  0  0  0  0  0  0
  -21.5594   -5.4506    3.9029 C   0  0  0  0  0  0  0  0  0  0  0  0
  -20.9594   -7.5506    2.8029 C   0  0  0  0  0  0  0  0  0  0  0  0
  -21.8594   -6.9506    3.7029 N   0  0  0  0  0  0  0  0  0  0  0  0
  -19.9594   -3.9506    4.5029 O   0  0  0  0  0  0  0  0  0  0  0  0
  -21.8594   -7.5506    5.0029 C   0  0  0  0  0  0  0  0  0  0  0  0
  -21.0594   -3.0506    4.5029 C   0  0  0  0  0  0  0  0  0  0  0  0
  2  1  2  0
  3  2  1  0
  4  3  2  0
  5  4  1  0
  6  5  1  0
  7  6  1  0
  8  1  1  0
  8  5  2  0
  9  6  1  0
 10  2  1  0
 11  7  1  0
 12  9  1  0
 13 11  1  0
 13 12  1  0
 14  7  1  0
 15 13  1  0
 16 14  1  0
M  END
>  <ID>  (1) 
conformer_0

$$$$
