
     RDKit          3D

 17 18  0  0  0  0  0  0  0  0999 V2000
  -15.5594   -5.8506    4.0029 C   0  0  0  0  0  0  0  0  0  0  0  0
  -15.5594   -6.7506    5.1029 C   0  0  0  0  0  0  0  0  0  0  0  0
  -16.6594   -6.4506    6.0029 C   0  0  0  0  0  0  0  0  0  0  0  0
  -17.8594   -6.1506    5.5029 C   0  0  0  0  0  0  0  0  0  0  0  0
  -17.9594   -5.8506    4.1029 C   0  0  0  0  0  0  0  0  0  0  0  0
  -19.2594   -5.5506    3.6029 N   0  0  0  0  0  0  0  0  0  0  0  0
  -19.8594   -6.1506    2.5029 C   0  0  0  0  0  0  0  0  0  0  0  0
  -16.8594   -5.9506    3.3029 C   0  0  0  0  0  0  0  0  0  0  0  0
  -20.1594   -5.5506    4.8029 C   0  0  0  0  0  0  0  0  0  0  0  0
  -14.2594   -6.9506    5.7029 O   0  0  0  0  0  0  0  0  0  0  0  0
  -21.4594   -6.0506    4.5029 C   0  0  0  0  0  0  0  0  0  0  0  0
  -20.1594   -7.5506    2.9029 C   0  0  0  0  0  0  0  0  0  0  0  0
  -21.1594   -7.5506    3.8029 N   0  0  0  0  0  0  0  0  0  0  0  0
  -21.9594   -8.5506    4.4029 C   0  0  0  0  0  0  0  0  0  0  0  0
  -21.9594   -8.6506    5.6029 O   0  0  0  0  0  0  0  0  0  0  0  0
  -21.9594   -9.8506    3.7029 C   0  0  0  0  0  0  0  0  0  0  0  0
  -20.8594   -5.5506    1.8029 O   0  0  0  0  0  0  0  0  0  0  0  0
  2  1  2  0
  3  2  1  0
  4  3  2  0
  5  4  1  0
  6  5  1  0
  7  6  1  0
  8  1  1  0
  8  5  2  0
  9  6  1  0
 10  2  1  0
 11  9  1  0
 12  7  1  0
 13 11  1  0
 13 12  1  0
 14 13  1  0
 15 14  2  0
 16 14  1  0
 17  7  1  0
M  END
>  <ID>  (1) 
conformer_0

$$$$
