
     RDKit          3D

 15 16  0  0  0  0  0  0  0  0999 V2000
  -15.5594   -5.8506    4.0029 C   0  0  0  0  0  0  0  0  0  0  0  0
  -15.5594   -6.7506    5.1029 C   0  0  0  0  0  0  0  0  0  0  0  0
  -16.6594   -6.4506    6.0029 C   0  0  0  0  0  0  0  0  0  0  0  0
  -17.8594   -6.1506    5.5029 C   0  0  0  0  0  0  0  0  0  0  0  0
  -17.9594   -5.8506    4.1029 C   0  0  0  0  0  0  0  0  0  0  0  0
  -16.8594   -6.0506    3.3029 C   0  0  0  0  0  0  0  0  0  0  0  0
  -14.3594   -6.9506    5.7029 O   0  0  0  0  0  0  0  0  0  0  0  0
  -14.4594   -5.6506    3.3029 O   0  0  0  0  0  0  0  0  0  0  0  0
  -19.2594   -5.7506    3.6029 N   0  0  0  0  0  0  0  0  0  0  0  0
  -20.1594   -5.6506    4.7029 C   0  0  0  0  0  0  0  0  0  0  0  0
  -19.9594   -6.3506    2.5029 C   0  0  0  0  0  0  0  0  0  0  0  0
  -21.1594   -7.0506    2.8029 C   0  0  0  0  0  0  0  0  0  0  0  0
  -20.2594   -4.7506    5.4029 O   0  0  0  0  0  0  0  0  0  0  0  0
  -21.0594   -7.7506    4.1029 C   0  0  0  0  0  0  0  0  0  0  0  0
  -20.3594   -7.0506    5.2029 C   0  0  0  0  0  0  0  0  0  0  0  0
  2  1  2  0
  3  2  1  0
  4  3  2  0
  5  4  1  0
  6  1  1  0
  6  5  2  0
  7  2  1  0
  8  1  1  0
  9  5  1  0
 10  9  1  0
 11  9  1  0
 12 11  1  0
 13 10  2  0
 14 12  1  0
 15 10  1  0
 15 14  1  0
M  END
>  <ID>  (1) 
conformer_0

$$$$
