
     RDKit          3D

 15 18  0  0  0  0  0  0  0  0999 V2000
  -15.3281   -5.5593    4.4715 C   0  0  0  0  0  0  0  0  0  0  0  0
  -15.7281   -6.7593    5.2715 C   0  0  0  0  0  0  0  0  0  0  0  0
  -14.0281   -6.0593    3.9715 N   0  0  0  0  0  0  0  0  0  0  0  0
  -17.0281   -6.3593    5.8715 C   0  0  0  0  0  0  0  0  0  0  0  0
  -17.7281   -5.6593    4.7715 C   0  0  0  0  0  0  0  0  0  0  0  0
  -17.5281   -6.1593    3.3715 C   0  0  0  0  0  0  0  0  0  0  0  0
  -13.3281   -6.5593    4.9715 C   0  0  0  0  0  0  0  0  0  0  0  0
  -12.1281   -6.7593    5.3715 O   0  0  0  0  0  0  0  0  0  0  0  0
  -14.5281   -7.1593    5.8715 N   0  0  0  0  0  0  0  0  0  0  0  0
  -18.7281   -6.9593    2.9715 C   0  0  0  0  0  0  0  0  0  0  0  0
  -19.1281   -7.8593    4.0715 C   0  0  0  0  0  0  0  0  0  0  0  0
  -19.1281   -5.6593    4.9715 N   0  0  0  0  0  0  0  0  0  0  0  0
  -19.5281   -6.9593    5.2715 C   0  0  0  0  0  0  0  0  0  0  0  0
  -20.2281   -5.7593    4.3715 C   0  0  0  0  0  0  0  0  0  0  0  0
  -20.0281   -5.9593    2.9715 O   0  0  0  0  0  0  0  0  0  0  0  0
  2  1  1  0
  3  1  1  0
  4  2  1  0
  5  4  1  0
  6  5  1  0
  7  3  1  0
  8  7  2  0
  9  2  1  0
  9  7  1  0
 10  6  1  0
 11 10  1  0
 12  5  1  0
 13 11  1  0
 13 12  1  0
 14 12  1  0
 14 13  1  0
 15 10  1  0
 15 14  1  0
M  END
>  <ID>  (1) 
conformer_0

$$$$
