
     RDKit          3D

 11 11  0  0  0  0  0  0  0  0999 V2000
  -15.8602   -5.7271    4.3252 C   0  0  0  0  0  0  0  0  0  0  0  0
  -16.0602   -6.6271    5.4252 C   0  0  0  0  0  0  0  0  0  0  0  0
  -17.3602   -6.4271    6.0252 C   0  0  0  0  0  0  0  0  0  0  0  0
  -18.2602   -5.7271    5.2252 C   0  0  0  0  0  0  0  0  0  0  0  0
  -18.1602   -5.5271    3.8252 C   0  0  0  0  0  0  0  0  0  0  0  0
  -16.8602   -5.9271    3.3252 C   0  0  0  0  0  0  0  0  0  0  0  0
  -14.4602   -5.8271    3.8252 N   0  0  0  0  0  0  0  0  0  0  0  0
  -13.7602   -6.3271    4.9252 C   0  0  0  0  0  0  0  0  0  0  0  0
  -12.3602   -6.5271    4.5252 N   0  0  0  0  0  0  0  0  0  0  0  0
  -11.5602   -6.9271    5.6252 N   0  0  0  0  0  0  0  0  0  0  0  0
  -13.4602   -5.3271    5.7252 O   0  0  0  0  0  0  0  0  0  0  0  0
  2  1  2  0
  3  2  1  0
  4  3  2  0
  5  4  1  0
  6  1  1  0
  6  5  2  0
  7  1  1  0
  8  7  1  0
  9  8  1  0
 10  9  1  0
 11  8  1  0
M  END
>  <ID>  (1) 
conformer_0

$$$$
