
     RDKit          3D

  6  6  0  0  0  0  0  0  0  0999 V2000
  -18.4921   -4.9578    4.5805 C   0  0  0  0  0  0  0  0  0  0  0  0
  -19.6921   -5.2578    3.8805 C   0  0  0  0  0  0  0  0  0  0  0  0
  -17.3921   -5.4578    4.2805 C   0  0  0  0  0  0  0  0  0  0  0  0
  -19.6921   -6.4578    3.0805 C   0  0  0  0  0  0  0  0  0  0  0  0
  -18.6921   -7.3578    3.2805 C   0  0  0  0  0  0  0  0  0  0  0  0
  -17.3921   -6.6578    3.5805 C   0  0  0  0  0  0  0  0  0  0  0  0
  2  1  2  0
  3  1  1  0
  4  2  1  0
  5  4  2  0
  6  3  2  0
  6  5  1  0
M  END
>  <ID>  (1) 
conformer_0

$$$$
