
     RDKit          3D

 16 18  0  0  0  0  0  0  0  0999 V2000
  -15.5594   -5.8506    4.0029 C   0  0  0  0  0  0  0  0  0  0  0  0
  -15.5594   -6.7506    5.1029 C   0  0  0  0  0  0  0  0  0  0  0  0
  -16.6594   -6.6506    5.9029 C   0  0  0  0  0  0  0  0  0  0  0  0
  -17.6594   -5.8506    5.5029 C   0  0  0  0  0  0  0  0  0  0  0  0
  -17.9594   -5.8506    4.1029 C   0  0  0  0  0  0  0  0  0  0  0  0
  -19.2594   -5.3506    3.8029 N   0  0  0  0  0  0  0  0  0  0  0  0
  -19.8594   -5.1506    5.1029 C   0  0  0  0  0  0  0  0  0  0  0  0
  -20.1594   -5.8506    2.9029 C   0  0  0  0  0  0  0  0  0  0  0  0
  -16.8594   -6.0506    3.3029 C   0  0  0  0  0  0  0  0  0  0  0  0
  -14.2594   -7.0506    5.7029 O   0  0  0  0  0  0  0  0  0  0  0  0
  -19.7594   -3.9506    5.7029 O   0  0  0  0  0  0  0  0  0  0  0  0
  -21.3594   -6.4506    3.5029 C   0  0  0  0  0  0  0  0  0  0  0  0
  -21.2594   -5.6506    4.9029 C   0  0  0  0  0  0  0  0  0  0  0  0
  -19.5594   -6.7506    2.0029 O   0  0  0  0  0  0  0  0  0  0  0  0
  -20.1594   -6.2506    5.7029 N   0  0  0  0  0  0  0  0  0  0  0  0
  -20.5594   -7.3506    1.1029 C   0  0  0  0  0  0  0  0  0  0  0  0
  2  1  2  0
  3  2  1  0
  4  3  2  0
  5  4  1  0
  6  5  1  0
  7  6  1  0
  8  6  1  0
  9  1  1  0
  9  5  2  0
 10  2  1  0
 11  7  1  0
 12  8  1  0
 13  7  1  0
 13 12  1  0
 14  8  1  0
 15  7  1  0
 15 13  1  0
 16 14  1  0
M  END
>  <ID>  (1) 
conformer_0

$$$$
