
     RDKit          3D

 15 17  0  0  0  0  0  0  0  0999 V2000
  -15.5594   -5.8506    4.0029 C   0  0  0  0  0  0  0  0  0  0  0  0
  -15.5594   -6.7506    5.1029 C   0  0  0  0  0  0  0  0  0  0  0  0
  -16.7594   -6.5506    5.9029 C   0  0  0  0  0  0  0  0  0  0  0  0
  -17.6594   -5.6506    5.2029 C   0  0  0  0  0  0  0  0  0  0  0  0
  -17.9594   -6.0506    3.8029 C   0  0  0  0  0  0  0  0  0  0  0  0
  -19.2594   -5.6506    3.4029 N   0  0  0  0  0  0  0  0  0  0  0  0
  -19.8594   -6.6506    2.6029 C   0  0  0  0  0  0  0  0  0  0  0  0
  -19.8594   -5.0506    4.5029 C   0  0  0  0  0  0  0  0  0  0  0  0
  -19.7594   -3.7506    4.6029 O   0  0  0  0  0  0  0  0  0  0  0  0
  -19.3594   -7.5506    1.7029 C   0  0  0  0  0  0  0  0  0  0  0  0
  -14.3594   -7.0506    5.6029 O   0  0  0  0  0  0  0  0  0  0  0  0
  -19.3594   -8.0506    3.1029 C   0  0  0  0  0  0  0  0  0  0  0  0
  -18.9594   -5.5506    5.7029 N   0  0  0  0  0  0  0  0  0  0  0  0
  -14.4594   -5.5506    3.3029 F   0  0  0  0  0  0  0  0  0  0  0  0
  -16.8594   -6.2506    3.1029 C   0  0  0  0  0  0  0  0  0  0  0  0
  2  1  2  0
  3  2  1  0
  4  3  2  0
  5  4  1  0
  6  5  1  0
  7  6  1  0
  8  6  1  0
  9  8  1  0
 10  7  1  0
 11  2  1  0
 12  7  1  0
 12 10  1  0
 13  4  1  0
 13  8  1  0
 14  1  1  0
 15  1  1  0
 15  5  2  0
M  END
>  <ID>  (1) 
conformer_0

$$$$
