
     RDKit          3D

 15 15  0  0  0  0  0  0  0  0999 V2000
  -15.8602   -5.7271    4.3252 C   0  0  0  0  0  0  0  0  0  0  0  0
  -16.0602   -6.3271    5.5252 C   0  0  0  0  0  0  0  0  0  0  0  0
  -17.3602   -6.2271    6.0252 C   0  0  0  0  0  0  0  0  0  0  0  0
  -18.2602   -5.7271    5.1252 C   0  0  0  0  0  0  0  0  0  0  0  0
  -18.1602   -5.8271    3.7252 C   0  0  0  0  0  0  0  0  0  0  0  0
  -16.7602   -6.0271    3.3252 C   0  0  0  0  0  0  0  0  0  0  0  0
  -14.4602   -5.9271    3.9252 N   0  0  0  0  0  0  0  0  0  0  0  0
  -13.6602   -6.4271    5.0252 C   0  0  0  0  0  0  0  0  0  0  0  0
  -12.4602   -5.9271    5.5252 N   0  0  0  0  0  0  0  0  0  0  0  0
  -13.8602   -7.4271    5.8252 O   0  0  0  0  0  0  0  0  0  0  0  0
  -11.3602   -6.8271    5.5252 N   0  0  0  0  0  0  0  0  0  0  0  0
  -19.4602   -5.2271    5.6252 N   0  0  0  0  0  0  0  0  0  0  0  0
  -20.6602   -5.1271    4.8252 C   0  0  0  0  0  0  0  0  0  0  0  0
  -21.6602   -4.2271    5.4252 C   0  0  0  0  0  0  0  0  0  0  0  0
  -21.9602   -4.3271    6.7252 O   0  0  0  0  0  0  0  0  0  0  0  0
  2  1  2  0
  3  2  1  0
  4  3  2  0
  5  4  1  0
  6  1  1  0
  6  5  2  0
  7  1  1  0
  8  7  1  0
  9  8  1  0
 10  8  2  0
 11  9  1  0
 12  4  1  0
 13 12  1  0
 14 13  1  0
 15 14  1  0
M  END
>  <ID>  (1) 
conformer_0

$$$$
