
     RDKit          3D

 14 15  0  0  0  0  0  0  0  0999 V2000
  -15.5594   -5.8506    4.0029 C   0  0  0  0  0  0  0  0  0  0  0  0
  -15.6594   -6.5506    5.3029 C   0  0  0  0  0  0  0  0  0  0  0  0
  -16.9594   -6.4506    5.9029 C   0  0  0  0  0  0  0  0  0  0  0  0
  -17.9594   -5.7506    5.1029 C   0  0  0  0  0  0  0  0  0  0  0  0
  -17.9594   -6.0506    3.7029 C   0  0  0  0  0  0  0  0  0  0  0  0
  -19.2594   -5.8506    3.2029 N   0  0  0  0  0  0  0  0  0  0  0  0
  -20.1594   -5.3506    4.2029 C   0  0  0  0  0  0  0  0  0  0  0  0
  -19.9594   -6.4506    2.1029 C   0  0  0  0  0  0  0  0  0  0  0  0
  -16.7594   -6.1506    3.2029 C   0  0  0  0  0  0  0  0  0  0  0  0
  -14.6594   -7.1506    5.8029 O   0  0  0  0  0  0  0  0  0  0  0  0
  -21.4594   -6.0506    4.2029 C   0  0  0  0  0  0  0  0  0  0  0  0
  -21.1594   -7.2506    2.1029 C   0  0  0  0  0  0  0  0  0  0  0  0
  -21.4594   -7.4506    3.5029 C   0  0  0  0  0  0  0  0  0  0  0  0
  -20.1594   -4.1506    4.4029 O   0  0  0  0  0  0  0  0  0  0  0  0
  2  1  1  0
  3  2  1  0
  4  3  1  0
  5  4  1  0
  6  5  1  0
  7  6  1  0
  8  6  1  0
  9  1  1  0
  9  5  1  0
 10  2  2  0
 11  7  1  0
 12  8  1  0
 13 11  1  0
 13 12  1  0
 14  7  2  0
M  END
>  <ID>  (1) 
conformer_0

$$$$
