
     RDKit          3D

 14 16  0  0  0  0  0  0  0  0999 V2000
  -15.5594   -5.8506    4.0029 C   0  0  0  0  0  0  0  0  0  0  0  0
  -15.6594   -6.5506    5.3029 C   0  0  0  0  0  0  0  0  0  0  0  0
  -16.9594   -6.4506    5.9029 C   0  0  0  0  0  0  0  0  0  0  0  0
  -17.9594   -5.7506    5.1029 C   0  0  0  0  0  0  0  0  0  0  0  0
  -17.9594   -6.0506    3.7029 C   0  0  0  0  0  0  0  0  0  0  0  0
  -19.2594   -6.1506    3.1029 N   0  0  0  0  0  0  0  0  0  0  0  0
  -19.4594   -7.3506    2.3029 C   0  0  0  0  0  0  0  0  0  0  0  0
  -20.1594   -5.7506    4.1029 C   0  0  0  0  0  0  0  0  0  0  0  0
  -17.6594   -4.9506    4.2029 C   0  0  0  0  0  0  0  0  0  0  0  0
  -14.6594   -7.2506    5.8029 O   0  0  0  0  0  0  0  0  0  0  0  0
  -21.2594   -4.8506    3.8029 C   0  0  0  0  0  0  0  0  0  0  0  0
  -20.2594   -4.5506    4.3029 O   0  0  0  0  0  0  0  0  0  0  0  0
  -15.4594   -5.0506    5.1029 C   0  0  0  0  0  0  0  0  0  0  0  0
  -22.6594   -5.3506    3.7029 C   0  0  0  0  0  0  0  0  0  0  0  0
  2  1  1  0
  3  2  1  0
  4  3  1  0
  5  4  1  0
  6  5  1  0
  7  6  1  0
  8  6  1  0
  9  4  1  0
  9  5  1  0
 10  2  1  0
 11  8  1  0
 12  8  1  0
 12 11  1  0
 13  1  2  0
 13  2  1  0
 14 11  1  0
M  END
>  <ID>  (1) 
conformer_0

$$$$
