
     RDKit          3D

  5  4  0  0  0  0  0  0  0  0999 V2000
  -19.0234   -7.8580    4.1078 C   0  0  0  0  0  0  0  0  0  0  0  0
  -18.8234   -6.7580    5.1078 C   0  0  0  0  0  0  0  0  0  0  0  0
  -17.5234   -6.1580    5.4078 C   0  0  0  0  0  0  0  0  0  0  0  0
  -20.0234   -5.9580    5.3078 C   0  0  0  0  0  0  0  0  0  0  0  0
  -16.6234   -6.3580    6.1078 N   0  0  0  0  0  0  0  0  0  0  0  0
  2  1  1  0
  3  2  1  0
  4  2  1  0
  5  3  2  0
M  END
>  <ID>  (1) 
conformer_0

$$$$
