
     RDKit          3D

 11 11  0  0  0  0  0  0  0  0999 V2000
  -15.8602   -5.7271    4.3252 C   0  0  0  0  0  0  0  0  0  0  0  0
  -16.0602   -6.6271    5.4252 C   0  0  0  0  0  0  0  0  0  0  0  0
  -17.3602   -6.4271    5.9252 C   0  0  0  0  0  0  0  0  0  0  0  0
  -18.2602   -5.7271    5.1252 C   0  0  0  0  0  0  0  0  0  0  0  0
  -18.1602   -5.9271    3.7252 C   0  0  0  0  0  0  0  0  0  0  0  0
  -16.8602   -6.0271    3.3252 C   0  0  0  0  0  0  0  0  0  0  0  0
  -14.5602   -5.7271    3.8252 N   0  0  0  0  0  0  0  0  0  0  0  0
  -13.7602   -6.5271    4.7252 C   0  0  0  0  0  0  0  0  0  0  0  0
  -12.4602   -6.6271    4.2252 N   0  0  0  0  0  0  0  0  0  0  0  0
  -13.7602   -6.5271    5.9252 O   0  0  0  0  0  0  0  0  0  0  0  0
  -11.2602   -6.8271    5.0252 N   0  0  0  0  0  0  0  0  0  0  0  0
  2  1  2  0
  3  2  1  0
  4  3  2  0
  5  4  1  0
  6  1  1  0
  6  5  2  0
  7  1  1  0
  8  7  1  0
  9  8  1  0
 10  8  2  0
 11  9  1  0
M  END
>  <ID>  (1) 
conformer_0

$$$$
