
     RDKit          3D

 16 17  0  0  0  0  0  0  0  0999 V2000
  -15.5594   -5.8506    4.0029 C   0  0  0  0  0  0  0  0  0  0  0  0
  -15.6594   -6.5506    5.3029 C   0  0  0  0  0  0  0  0  0  0  0  0
  -16.9594   -6.4506    5.9029 C   0  0  0  0  0  0  0  0  0  0  0  0
  -17.9594   -5.7506    5.1029 C   0  0  0  0  0  0  0  0  0  0  0  0
  -17.9594   -6.0506    3.7029 C   0  0  0  0  0  0  0  0  0  0  0  0
  -19.1594   -6.2506    3.0029 N   0  0  0  0  0  0  0  0  0  0  0  0
  -19.3594   -7.3506    2.1029 C   0  0  0  0  0  0  0  0  0  0  0  0
  -20.1594   -6.1506    4.1029 C   0  0  0  0  0  0  0  0  0  0  0  0
  -16.6594   -6.2506    3.2029 C   0  0  0  0  0  0  0  0  0  0  0  0
  -14.4594   -6.9506    5.8029 O   0  0  0  0  0  0  0  0  0  0  0  0
  -20.4594   -4.8506    4.3029 O   0  0  0  0  0  0  0  0  0  0  0  0
  -20.6594   -8.0506    2.2029 C   0  0  0  0  0  0  0  0  0  0  0  0
  -20.5594   -7.4506    4.6029 C   0  0  0  0  0  0  0  0  0  0  0  0
  -20.9594   -8.3506    3.5029 N   0  0  0  0  0  0  0  0  0  0  0  0
  -21.8594   -9.4506    3.8029 C   0  0  0  0  0  0  0  0  0  0  0  0
  -20.9594   -8.9506    1.3029 O   0  0  0  0  0  0  0  0  0  0  0  0
  2  1  2  0
  3  2  1  0
  4  3  2  0
  5  4  1  0
  6  5  1  0
  7  6  1  0
  8  6  1  0
  9  1  1  0
  9  5  2  0
 10  2  1  0
 11  8  2  0
 12  7  1  0
 13  8  1  0
 14 12  1  0
 14 13  1  0
 15 14  1  0
 16 12  2  0
M  END
>  <ID>  (1) 
conformer_0

$$$$
