
     RDKit          3D

 15 17  0  0  0  0  0  0  0  0999 V2000
  -15.8602   -5.7271    4.3252 C   0  0  0  0  0  0  0  0  0  0  0  0
  -16.0602   -6.3271    5.5252 C   0  0  0  0  0  0  0  0  0  0  0  0
  -17.3602   -6.2271    6.0252 C   0  0  0  0  0  0  0  0  0  0  0  0
  -18.2602   -5.7271    5.1252 C   0  0  0  0  0  0  0  0  0  0  0  0
  -18.1602   -5.9271    3.7252 C   0  0  0  0  0  0  0  0  0  0  0  0
  -16.8602   -6.1271    3.3252 C   0  0  0  0  0  0  0  0  0  0  0  0
  -14.5602   -6.0271    3.8252 N   0  0  0  0  0  0  0  0  0  0  0  0
  -13.7602   -6.4271    5.0252 C   0  0  0  0  0  0  0  0  0  0  0  0
  -13.2602   -5.5271    5.6252 O   0  0  0  0  0  0  0  0  0  0  0  0
  -12.6602   -7.1271    4.4252 N   0  0  0  0  0  0  0  0  0  0  0  0
  -11.2602   -6.9271    4.2252 C   0  0  0  0  0  0  0  0  0  0  0  0
  -19.6602   -6.0271    5.5252 N   0  0  0  0  0  0  0  0  0  0  0  0
  -20.5602   -6.1271    4.4252 C   0  0  0  0  0  0  0  0  0  0  0  0
  -19.8602   -7.3271    4.8252 C   0  0  0  0  0  0  0  0  0  0  0  0
  -12.2602   -6.4271    3.3252 C   0  0  0  0  0  0  0  0  0  0  0  0
  2  1  2  0
  3  2  1  0
  4  3  2  0
  5  4  1  0
  6  1  1  0
  6  5  2  0
  7  1  1  0
  8  7  1  0
  9  8  1  0
 10  8  1  0
 11 10  1  0
 12  4  1  0
 13 12  1  0
 14 12  1  0
 14 13  1  0
 15 10  1  0
 15 11  1  0
M  END
>  <ID>  (1) 
conformer_0

$$$$
