
     RDKit          3D

 11 12  0  0  0  0  0  0  0  0999 V2000
  -15.3752   -5.5567    4.6551 C   0  0  0  0  0  0  0  0  0  0  0  0
  -16.1752   -6.4567    5.4551 C   0  0  0  0  0  0  0  0  0  0  0  0
  -17.2752   -6.0567    6.1551 C   0  0  0  0  0  0  0  0  0  0  0  0
  -14.3752   -5.8567    3.8551 N   0  0  0  0  0  0  0  0  0  0  0  0
  -18.6752   -6.3567    5.9551 C   0  0  0  0  0  0  0  0  0  0  0  0
  -18.6752   -7.2567    4.7551 C   0  0  0  0  0  0  0  0  0  0  0  0
  -17.9752   -6.5567    3.7551 C   0  0  0  0  0  0  0  0  0  0  0  0
  -16.6752   -5.9567    4.1551 N   0  0  0  0  0  0  0  0  0  0  0  0
  -13.1752   -6.4567    4.0551 N   0  0  0  0  0  0  0  0  0  0  0  0
  -12.0752   -6.8567    3.8551 C   0  0  0  0  0  0  0  0  0  0  0  0
  -11.0752   -6.7567    4.8551 N   0  0  0  0  0  0  0  0  0  0  0  0
  2  1  1  0
  3  2  1  0
  4  1  1  0
  5  3  1  0
  6  5  1  0
  7  6  1  0
  8  1  1  0
  8  2  1  0
  8  7  1  0
  9  4  1  0
 10  9  1  0
 11 10  1  0
M  END
>  <ID>  (1) 
conformer_0

$$$$
