
     RDKit          3D

 16 19  0  0  0  0  0  0  0  0999 V2000
  -15.5594   -5.8506    4.0029 C   0  0  0  0  0  0  0  0  0  0  0  0
  -15.6594   -6.5506    5.3029 C   0  0  0  0  0  0  0  0  0  0  0  0
  -16.9594   -6.4506    5.9029 C   0  0  0  0  0  0  0  0  0  0  0  0
  -17.9594   -5.7506    5.1029 C   0  0  0  0  0  0  0  0  0  0  0  0
  -17.9594   -6.0506    3.7029 C   0  0  0  0  0  0  0  0  0  0  0  0
  -19.2594   -6.2506    3.2029 N   0  0  0  0  0  0  0  0  0  0  0  0
  -19.5594   -7.4506    2.5029 C   0  0  0  0  0  0  0  0  0  0  0  0
  -20.2594   -5.7506    4.1029 C   0  0  0  0  0  0  0  0  0  0  0  0
  -17.6594   -4.8506    4.2029 C   0  0  0  0  0  0  0  0  0  0  0  0
  -14.5594   -7.1506    5.8029 O   0  0  0  0  0  0  0  0  0  0  0  0
  -15.4594   -5.0506    5.0029 C   0  0  0  0  0  0  0  0  0  0  0  0
  -20.9594   -7.7506    2.9029 C   0  0  0  0  0  0  0  0  0  0  0  0
  -21.5594   -6.5506    3.5029 C   0  0  0  0  0  0  0  0  0  0  0  0
  -20.8594   -8.6506    4.0029 N   0  0  0  0  0  0  0  0  0  0  0  0
  -21.8594   -8.4506    4.9029 N   0  0  0  0  0  0  0  0  0  0  0  0
  -22.2594   -7.1506    4.7029 N   0  0  0  0  0  0  0  0  0  0  0  0
  2  1  1  0
  3  2  1  0
  4  3  1  0
  5  4  1  0
  6  5  1  0
  7  6  1  0
  8  6  1  0
  9  4  1  0
  9  5  1  0
 10  2  1  0
 11  1  2  0
 11  2  1  0
 12  7  1  0
 13  8  1  0
 13 12  2  0
 14 12  1  0
 15 14  1  0
 16 13  1  0
 16 15  2  0
M  END
>  <ID>  (1) 
conformer_0

$$$$
