
     RDKit          3D

 16 17  0  0  0  0  0  0  0  0999 V2000
  -15.5594   -5.8506    4.0029 C   0  0  0  0  0  0  0  0  0  0  0  0
  -15.5594   -6.7506    5.1029 C   0  0  0  0  0  0  0  0  0  0  0  0
  -16.7594   -6.5506    5.9029 C   0  0  0  0  0  0  0  0  0  0  0  0
  -17.6594   -5.6506    5.2029 C   0  0  0  0  0  0  0  0  0  0  0  0
  -17.9594   -5.8506    3.9029 C   0  0  0  0  0  0  0  0  0  0  0  0
  -19.1594   -5.9506    3.2029 N   0  0  0  0  0  0  0  0  0  0  0  0
  -19.5594   -7.1506    2.6029 C   0  0  0  0  0  0  0  0  0  0  0  0
  -20.2594   -5.1506    3.7029 C   0  0  0  0  0  0  0  0  0  0  0  0
  -19.7594   -8.2506    3.5029 C   0  0  0  0  0  0  0  0  0  0  0  0
  -16.7594   -6.0506    3.2029 C   0  0  0  0  0  0  0  0  0  0  0  0
  -14.3594   -6.9506    5.7029 O   0  0  0  0  0  0  0  0  0  0  0  0
  -20.2594   -4.4506    4.7029 O   0  0  0  0  0  0  0  0  0  0  0  0
  -21.4594   -5.4506    2.9029 C   0  0  0  0  0  0  0  0  0  0  0  0
  -20.4594   -7.1506    1.4029 C   0  0  0  0  0  0  0  0  0  0  0  0
  -21.2594   -5.8506    1.5029 C   0  0  0  0  0  0  0  0  0  0  0  0
  -21.3594   -5.0506    0.4029 O   0  0  0  0  0  0  0  0  0  0  0  0
  2  1  2  0
  3  2  1  0
  4  3  2  0
  5  4  1  0
  6  5  1  0
  7  6  1  0
  8  6  1  0
  9  7  1  0
 10  1  1  0
 10  5  2  0
 11  2  1  0
 12  8  2  0
 13  8  1  0
 14  7  1  0
 15 13  1  0
 15 14  1  0
 16 15  1  0
M  END
>  <ID>  (1) 
conformer_0

$$$$
