
     RDKit          3D

  5  4  0  0  0  0  0  0  0  0999 V2000
  -19.0003   -7.7691    4.3382 C   0  0  0  0  0  0  0  0  0  0  0  0
  -19.0003   -6.6691    5.3382 C   0  0  0  0  0  0  0  0  0  0  0  0
  -17.7003   -5.9691    5.5382 C   0  0  0  0  0  0  0  0  0  0  0  0
  -20.2003   -5.8691    5.6382 C   0  0  0  0  0  0  0  0  0  0  0  0
  -19.8003   -4.6691    6.4382 C   0  0  0  0  0  0  0  0  0  0  0  0
  2  1  1  0
  3  2  1  0
  4  2  1  0
  5  4  1  0
M  END
>  <ID>  (1) 
conformer_0

$$$$
