
     RDKit          3D

 12 13  0  0  0  0  0  0  0  0999 V2000
   10.9747   33.7464   16.7680 C   0  0  0  0  0  0  0  0  0  0  0  0
   14.0658   34.1098   14.0632 N   0  0  0  0  0  0  0  0  0  0  0  0
   16.1877   35.2728   12.8880 C   0  0  0  0  0  0  0  0  0  0  0  0
   11.4005   32.6489   16.0477 C   0  0  0  0  0  0  0  0  0  0  0  0
   13.0697   33.9811   14.9457 C   0  0  0  0  0  0  0  0  0  0  0  0
   13.3702   36.2682   15.4536 N   0  0  0  0  0  0  0  0  0  0  0  0
   11.5908   34.9563   16.6087 C   0  0  0  0  0  0  0  0  0  0  0  0
   12.6560   35.0822   15.6840 C   0  0  0  0  0  0  0  0  0  0  0  0
   12.4302   32.7296   15.1332 C   0  0  0  0  0  0  0  0  0  0  0  0
    9.9768   33.6089   17.6264 F   0  0  0  0  0  0  0  0  0  0  0  0
   14.7939   35.2317   13.9337 C   0  0  0  0  0  0  0  0  0  0  0  0
   14.4238   36.3482   14.6265 N   0  0  0  0  0  0  0  0  0  0  0  0
  1  4  2  0
  1  7  1  0
  1 10  1  0
  2  5  1  0
  2 11  2  0
  3 11  1  0
  4  9  1  0
  5  8  1  0
  5  9  2  0
  6  8  1  0
  6 12  2  0
  7  8  2  0
 11 12  1  0
M  END
>  <ID>  (1) 
conformer_0

$$$$
