
     RDKit          3D

 12 13  0  0  0  0  0  0  0  0999 V2000
   13.2343   35.1939   12.5990 C   0  0  0  0  0  0  0  0  0  0  0  0
   15.1022   34.3446   14.1136 O   0  0  0  0  0  0  0  0  0  0  0  0
   11.0038   31.8310   16.0760 C   0  0  0  0  0  0  0  0  0  0  0  0
   10.4479   32.8324   16.8476 N   0  0  0  0  0  0  0  0  0  0  0  0
   11.0748   35.2283   17.1280 C   0  0  0  0  0  0  0  0  0  0  0  0
   12.0454   32.3204   15.3010 C   0  0  0  0  0  0  0  0  0  0  0  0
   11.1959   33.9883   16.5458 C   0  0  0  0  0  0  0  0  0  0  0  0
   12.9634   34.8331   15.0385 C   0  0  0  0  0  0  0  0  0  0  0  0
   13.8228   34.7724   13.8938 N   0  0  0  0  0  0  0  0  0  0  0  0
   12.8493   36.0624   15.6753 C   0  0  0  0  0  0  0  0  0  0  0  0
   11.9193   36.2504   16.7058 C   0  0  0  0  0  0  0  0  0  0  0  0
   12.1718   33.7318   15.5366 C   0  0  0  0  0  0  0  0  0  0  0  0
  1  9  1  0
  2  9  1  0
  3  4  1  0
  3  6  1  0
  4  7  1  0
  5  7  2  0
  5 11  1  0
  6 12  1  0
  7 12  1  0
  8  9  1  0
  8 10  2  0
  8 12  1  0
 10 11  1  0
M  END
>  <ID>  (1) 
conformer_0

$$$$
