
     RDKit          3D

  8  7  0  0  0  0  0  0  0  0999 V2000
   13.5500   35.2139   13.7628 C   0  0  0  0  0  0  0  0  0  0  0  0
   11.3853   33.8526   16.6481 C   0  0  0  0  0  0  0  0  0  0  0  0
   13.1494   35.5496   16.5967 C   0  0  0  0  0  0  0  0  0  0  0  0
   13.1626   35.1401   12.2764 C   0  0  0  0  0  0  0  0  0  0  0  0
   12.8698   34.1239   14.5501 C   0  0  0  0  0  0  0  0  0  0  0  0
   14.0563   35.7179   11.3754 O   0  0  0  0  0  0  0  0  0  0  0  0
   10.7935   32.2651   16.5518 S   0  0  0  0  0  0  0  0  0  0  0  0
   12.6191   34.2598   15.9560 C   0  0  0  0  0  0  0  0  0  0  0  0
  1  4  1  0
  1  5  1  0
  2  7  1  0
  2  8  1  0
  3  8  1  0
  4  6  1  0
  5  8  1  0
M  END
>  <ID>  (1) 
conformer_0

$$$$
