
     RDKit          3D

 11 12  0  0  0  0  0  0  0  0999 V2000
   10.5290   32.5458   16.8687 N   0  0  0  0  0  0  0  0  0  0  0  0
   13.6407   35.0896   13.9085 C   0  0  0  0  0  0  0  0  0  0  0  0
   11.0253   33.8250   16.9036 N   0  0  0  0  0  0  0  0  0  0  0  0
   12.4872   35.5222   15.9816 C   0  0  0  0  0  0  0  0  0  0  0  0
   13.3247   35.9482   14.9471 C   0  0  0  0  0  0  0  0  0  0  0  0
   13.2952   33.7406   13.9907 C   0  0  0  0  0  0  0  0  0  0  0  0
   14.2460   35.5886   12.8071 O   0  0  0  0  0  0  0  0  0  0  0  0
   12.0066   34.2258   15.9908 C   0  0  0  0  0  0  0  0  0  0  0  0
   11.2571   31.5409   16.1416 C   0  0  0  0  0  0  0  0  0  0  0  0
   12.1864   31.9223   15.2135 N   0  0  0  0  0  0  0  0  0  0  0  0
   12.5001   33.2876   15.0485 C   0  0  0  0  0  0  0  0  0  0  0  0
  1  3  1  0
  1  9  1  0
  2  5  2  0
  2  6  1  0
  2  7  1  0
  3  8  1  0
  4  5  1  0
  4  8  2  0
  6 11  2  0
  8 11  1  0
  9 10  2  0
 10 11  1  0
M  END
>  <ID>  (1) 
conformer_0

$$$$
