
     RDKit          3D

 11 11  0  0  0  0  0  0  0  0999 V2000
   11.3700   31.3854   16.3837 C   0  0  0  0  0  0  0  0  0  0  0  0
   14.9691   35.6156   13.9966 C   0  0  0  0  0  0  0  0  0  0  0  0
   12.5055   33.2205   15.1375 C   0  0  0  0  0  0  0  0  0  0  0  0
   11.3533   35.0906   16.7506 C   0  0  0  0  0  0  0  0  0  0  0  0
   11.6432   32.8343   16.1400 C   0  0  0  0  0  0  0  0  0  0  0  0
   12.8004   34.5706   14.9218 C   0  0  0  0  0  0  0  0  0  0  0  0
   15.8231   35.5550   12.6673 C   0  0  0  0  0  0  0  0  0  0  0  0
   13.6417   35.0028   13.8034 C   0  0  0  0  0  0  0  0  0  0  0  0
   11.0493   33.7880   16.9128 N   0  0  0  0  0  0  0  0  0  0  0  0
   12.2407   35.5198   15.7848 C   0  0  0  0  0  0  0  0  0  0  0  0
   13.1296   34.9916   12.5426 O   0  0  0  0  0  0  0  0  0  0  0  0
  1  5  1  0
  2  7  1  0
  2  8  1  0
  3  5  2  0
  3  6  1  0
  4  9  2  0
  4 10  1  0
  5  9  1  0
  6  8  1  0
  6 10  2  0
  8 11  1  0
M  END
>  <ID>  (1) 
conformer_0

$$$$
