
     RDKit          3D

 12 12  0  0  0  0  0  0  0  0999 V2000
   14.2065   35.4742   13.7279 C   0  0  0  0  0  0  0  0  0  0  0  0
   12.5728   36.1113   15.6179 C   0  0  0  0  0  0  0  0  0  0  0  0
   17.1855   35.5647   11.8085 C   0  0  0  0  0  0  0  0  0  0  0  0
   15.8566   35.8268   12.2911 N   0  0  0  0  0  0  0  0  0  0  0  0
   11.1249   34.4939   16.7171 C   0  0  0  0  0  0  0  0  0  0  0  0
   14.8939   35.1885   11.3871 C   0  0  0  0  0  0  0  0  0  0  0  0
   12.7112   33.8134   15.0114 C   0  0  0  0  0  0  0  0  0  0  0  0
   13.1298   35.1246   14.8189 C   0  0  0  0  0  0  0  0  0  0  0  0
   11.5811   35.7982   16.5547 C   0  0  0  0  0  0  0  0  0  0  0  0
   10.1312   34.1860   17.5717 O   0  0  0  0  0  0  0  0  0  0  0  0
   11.7482   33.5012   15.9416 C   0  0  0  0  0  0  0  0  0  0  0  0
   13.6576   35.0143   12.3112 C   0  0  0  0  0  0  0  0  0  0  0  0
  1  8  1  0
  1 12  1  0
  2  8  2  0
  2  9  1  0
  3  4  1  0
  4  6  1  0
  5  9  2  0
  5 10  1  0
  5 11  1  0
  6 12  1  0
  7  8  1  0
  7 11  2  0
M  END
>  <ID>  (1) 
conformer_0

$$$$
