
     RDKit          3D

  9  9  0  0  0  0  0  0  0  0999 V2000
   11.3743   34.1954   16.5852 C   0  0  0  0  0  0  0  0  0  0  0  0
   10.4886   32.1971   16.5129 N   0  0  0  0  0  0  0  0  0  0  0  0
   13.1424   33.9047   14.8520 N   0  0  0  0  0  0  0  0  0  0  0  0
   11.5452   32.2344   15.6301 C   0  0  0  0  0  0  0  0  0  0  0  0
   13.6131   36.2214   15.2355 O   0  0  0  0  0  0  0  0  0  0  0  0
   13.3849   35.4674   13.0346 O   0  0  0  0  0  0  0  0  0  0  0  0
   13.4618   35.2193   14.3490 C   0  0  0  0  0  0  0  0  0  0  0  0
   12.1092   33.5117   15.6462 C   0  0  0  0  0  0  0  0  0  0  0  0
   10.4128   33.4034   17.1213 N   0  0  0  0  0  0  0  0  0  0  0  0
  1  8  1  0
  1  9  1  0
  2  4  1  0
  2  9  1  0
  3  7  1  0
  3  8  1  0
  4  8  1  0
  5  7  2  0
  6  7  1  0
M  END
>  <ID>  (1) 
conformer_0

$$$$
