
     RDKit          3D

 15 17  0  0  0  0  0  0  0  0999 V2000
   13.7274   35.8010   13.4917 C   0  0  0  0  0  0  0  0  0  0  0  0
   11.6654   34.9501   16.3651 C   0  0  0  0  0  0  0  0  0  0  0  0
   14.6721   33.9885   14.4635 N   0  0  0  0  0  0  0  0  0  0  0  0
   13.2967   35.6923   14.8186 N   0  0  0  0  0  0  0  0  0  0  0  0
   15.7561   35.1105   12.3145 C   0  0  0  0  0  0  0  0  0  0  0  0
   10.4876   32.5283   16.8029 C   0  0  0  0  0  0  0  0  0  0  0  0
   15.2861   35.4790   11.0844 N   0  0  0  0  0  0  0  0  0  0  0  0
   12.2773   33.7916   15.8556 C   0  0  0  0  0  0  0  0  0  0  0  0
   10.5037   34.8820   17.0583 C   0  0  0  0  0  0  0  0  0  0  0  0
   17.2236   34.9468   12.6777 C   0  0  0  0  0  0  0  0  0  0  0  0
   14.8338   34.9738   13.3841 N   0  0  0  0  0  0  0  0  0  0  0  0
    9.8943   33.6805   17.2897 N   0  0  0  0  0  0  0  0  0  0  0  0
   13.4757   34.1714   15.1097 C   0  0  0  0  0  0  0  0  0  0  0  0
   12.3700   36.1302   15.9680 C   0  0  0  0  0  0  0  0  0  0  0  0
   11.7069   32.5666   16.0791 C   0  0  0  0  0  0  0  0  0  0  0  0
  1  4  1  0
  1 11  1  0
  2  8  2  0
  2  9  1  0
  2 14  1  0
  3 11  1  0
  3 13  2  0
  4 13  1  0
  4 14  1  0
  5  7  2  0
  5 10  1  0
  5 11  1  0
  6 12  1  0
  6 15  2  0
  8 13  1  0
  8 15  1  0
  9 12  2  0
M  END
>  <ID>  (1) 
conformer_0

$$$$
