
     RDKit          3D

 16 17  0  0  0  0  0  0  0  0999 V2000
   13.2470   35.6753   15.3341 C   0  0  0  0  0  0  0  0  0  0  0  0
   14.9539   35.2669   11.3836 C   0  0  0  0  0  0  0  0  0  0  0  0
   11.1839   34.8183   16.6914 C   0  0  0  0  0  0  0  0  0  0  0  0
   12.0127   32.3220   15.6806 C   0  0  0  0  0  0  0  0  0  0  0  0
   10.0432   32.6398   17.0933 N   0  0  0  0  0  0  0  0  0  0  0  0
   17.5239   34.3912   12.5873 C   0  0  0  0  0  0  0  0  0  0  0  0
   14.1646   34.9596   14.5230 C   0  0  0  0  0  0  0  0  0  0  0  0
   10.9721   31.8222   16.3825 C   0  0  0  0  0  0  0  0  0  0  0  0
   15.6279   35.8653   12.5757 N   0  0  0  0  0  0  0  0  0  0  0  0
   15.4430   35.5359   13.9373 C   0  0  0  0  0  0  0  0  0  0  0  0
   17.1074   35.8464   12.2195 C   0  0  0  0  0  0  0  0  0  0  0  0
   10.2789   33.9698   17.1474 C   0  0  0  0  0  0  0  0  0  0  0  0
   12.2924   34.7291   15.8386 C   0  0  0  0  0  0  0  0  0  0  0  0
   13.7547   33.5937   14.4470 O   0  0  0  0  0  0  0  0  0  0  0  0
   12.6462   33.4600   15.3301 C   0  0  0  0  0  0  0  0  0  0  0  0
   10.7912   30.5240   16.4049 N   0  0  0  0  0  0  0  0  0  0  0  0
  1  7  1  0
  1 13  1  0
  2  9  1  0
  3 12  2  0
  3 13  1  0
  4  8  1  0
  4 15  2  0
  5  8  1  0
  5 12  1  0
  6 11  1  0
  7 10  1  0
  7 14  1  0
  8 16  2  0
  9 10  1  0
  9 11  1  0
 13 15  1  0
 14 15  1  0
M  END
>  <ID>  (1) 
conformer_0

$$$$
