
     RDKit          3D

 10 10  0  0  0  0  0  0  0  0999 V2000
    9.9260   33.3258   17.0313 O   0  0  0  0  0  0  0  0  0  0  0  0
   11.8035   32.3678   15.8845 C   0  0  0  0  0  0  0  0  0  0  0  0
   12.8957   32.6183   15.1992 N   0  0  0  0  0  0  0  0  0  0  0  0
   11.1913   33.4209   16.5908 C   0  0  0  0  0  0  0  0  0  0  0  0
   13.3839   33.9259   15.0904 C   0  0  0  0  0  0  0  0  0  0  0  0
   11.9629   34.5650   16.7945 C   0  0  0  0  0  0  0  0  0  0  0  0
   13.0181   34.8110   16.0693 N   0  0  0  0  0  0  0  0  0  0  0  0
   13.1043   35.5761   12.1737 N   0  0  0  0  0  0  0  0  0  0  0  0
   14.0368   34.9911   12.9658 C   0  0  0  0  0  0  0  0  0  0  0  0
   14.0781   34.3128   14.0258 N   0  0  0  0  0  0  0  0  0  0  0  0
  1  4  1  0
  2  3  2  0
  2  4  1  0
  3  5  1  0
  4  6  1  0
  5  7  1  0
  5 10  1  0
  6  7  2  0
  8  9  1  0
  9 10  2  3
M  END
>  <ID>  (1) 
conformer_0

$$$$
