
     RDKit          3D

 12 12  0  0  0  0  0  0  0  0999 V2000
   13.8563   35.6832   15.2243 C   0  0  0  0  0  0  0  0  0  0  0  0
   13.4441   33.9730   13.0677 C   0  0  0  0  0  0  0  0  0  0  0  0
   12.9353   34.6219   15.2804 C   0  0  0  0  0  0  0  0  0  0  0  0
   14.5370   35.8424   14.0293 C   0  0  0  0  0  0  0  0  0  0  0  0
   10.0519   33.4136   17.4484 O   0  0  0  0  0  0  0  0  0  0  0  0
   14.0245   35.2219   12.9162 C   0  0  0  0  0  0  0  0  0  0  0  0
   13.0032   33.6575   14.2953 N   0  0  0  0  0  0  0  0  0  0  0  0
   11.3811   32.0264   15.9860 C   0  0  0  0  0  0  0  0  0  0  0  0
   11.5590   35.6638   17.1365 N   0  0  0  0  0  0  0  0  0  0  0  0
   13.9748   35.8488   11.7508 N   0  0  0  0  0  0  0  0  0  0  0  0
   11.8924   34.5417   16.3740 C   0  0  0  0  0  0  0  0  0  0  0  0
   11.0895   33.3626   16.6101 C   0  0  0  0  0  0  0  0  0  0  0  0
  1  3  2  0
  1  4  1  0
  2  6  1  0
  2  7  2  0
  3  7  1  0
  3 11  1  0
  4  6  1  0
  5 12  1  0
  6 10  2  0
  8 12  1  0
  9 11  1  0
 11 12  2  3
M  END
>  <ID>  (1) 
conformer_0

$$$$
