
     RDKit          3D

 13 14  0  0  0  0  0  0  0  0999 V2000
   12.3564   34.5570   15.5552 C   0  0  0  0  0  0  0  0  0  0  0  0
   11.6101   33.4704   16.1044 C   0  0  0  0  0  0  0  0  0  0  0  0
   12.9848   35.4978   13.3451 C   0  0  0  0  0  0  0  0  0  0  0  0
   10.6481   34.0130   17.0407 C   0  0  0  0  0  0  0  0  0  0  0  0
   14.8832   35.0646   12.2123 C   0  0  0  0  0  0  0  0  0  0  0  0
   11.8178   32.0659   15.8916 C   0  0  0  0  0  0  0  0  0  0  0  0
    9.6535   33.4474   17.6410 O   0  0  0  0  0  0  0  0  0  0  0  0
   11.9739   35.7091   16.2405 C   0  0  0  0  0  0  0  0  0  0  0  0
   15.2663   34.2873   13.2688 N   0  0  0  0  0  0  0  0  0  0  0  0
   10.9280   35.4040   17.1364 C   0  0  0  0  0  0  0  0  0  0  0  0
   13.7049   35.6496   12.2869 N   0  0  0  0  0  0  0  0  0  0  0  0
   14.5145   34.1138   14.3272 C   0  0  0  0  0  0  0  0  0  0  0  0
   13.2817   34.6979   14.4258 C   0  0  0  0  0  0  0  0  0  0  0  0
  1  2  1  0
  1  8  1  0
  1 13  1  0
  2  4  1  0
  2  6  1  0
  3 11  2  0
  3 13  1  0
  4  7  1  0
  4 10  1  0
  5  9  1  0
  5 11  1  0
  8 10  1  0
  9 12  2  0
 12 13  1  0
M  END
>  <ID>  (1) 
conformer_0

$$$$
