
     RDKit          3D

 12 12  0  0  0  0  0  0  0  0999 V2000
   12.1557   34.5244   16.1813 C   0  0  0  0  0  0  0  0  0  0  0  0
   14.8183   35.5448   13.0737 N   0  0  0  0  0  0  0  0  0  0  0  0
   14.0384   35.1446   14.2007 C   0  0  0  0  0  0  0  0  0  0  0  0
   14.2984   35.1934   11.7525 C   0  0  0  0  0  0  0  0  0  0  0  0
   13.6535   33.8308   14.4120 C   0  0  0  0  0  0  0  0  0  0  0  0
   12.6540   35.8031   16.0619 C   0  0  0  0  0  0  0  0  0  0  0  0
   13.6073   36.1134   15.0880 C   0  0  0  0  0  0  0  0  0  0  0  0
    9.9584   32.4128   17.1348 N   0  0  0  0  0  0  0  0  0  0  0  0
    9.9741   33.8306   17.0700 C   0  0  0  0  0  0  0  0  0  0  0  0
   12.7079   33.5087   15.4125 C   0  0  0  0  0  0  0  0  0  0  0  0
   11.1430   34.3395   17.0665 N   0  0  0  0  0  0  0  0  0  0  0  0
   15.1856   35.6261   10.7166 N   0  0  0  0  0  0  0  0  0  0  0  0
  1  6  2  0
  1 10  1  0
  1 11  1  0
  2  3  1  0
  2  4  1  0
  3  5  1  0
  3  7  2  0
  4 12  1  0
  5 10  2  0
  6  7  1  0
  8  9  1  0
  9 11  1  0
M  END
>  <ID>  (1) 
conformer_0

$$$$
