
     RDKit          3D

 12 13  0  0  0  0  0  0  0  0999 V2000
   13.3908   35.2188   13.7350 C   0  0  0  0  0  0  0  0  0  0  0  0
   14.0730   35.6608   11.3126 O   0  0  0  0  0  0  0  0  0  0  0  0
   13.6192   35.5466   12.3854 C   0  0  0  0  0  0  0  0  0  0  0  0
   13.4573   36.1425   14.7901 C   0  0  0  0  0  0  0  0  0  0  0  0
   12.2190   34.6816   16.2143 C   0  0  0  0  0  0  0  0  0  0  0  0
    9.8898   32.4427   17.2483 O   0  0  0  0  0  0  0  0  0  0  0  0
   12.8623   35.8747   16.0459 C   0  0  0  0  0  0  0  0  0  0  0  0
   11.6737   32.5713   15.7375 N   0  0  0  0  0  0  0  0  0  0  0  0
   11.3843   34.2418   17.1771 N   0  0  0  0  0  0  0  0  0  0  0  0
   12.3305   33.6860   15.2839 C   0  0  0  0  0  0  0  0  0  0  0  0
   12.9640   33.9374   14.0549 C   0  0  0  0  0  0  0  0  0  0  0  0
   10.9286   32.9928   16.8395 C   0  0  0  0  0  0  0  0  0  0  0  0
  1  3  2  0
  1  4  1  0
  1 11  1  0
  2  3  2  0
  4  7  2  0
  5  7  1  0
  5  9  1  0
  5 10  2  0
  6 12  2  0
  8 10  1  0
  8 12  1  0
  9 12  1  0
 10 11  1  0
M  END
>  <ID>  (1) 
conformer_0

$$$$
