
     RDKit          3D

 13 13  0  0  0  0  0  0  0  0999 V2000
   10.3159   33.4878   16.8971 C   0  0  0  0  0  0  0  0  0  0  0  0
   16.2996   35.4552   12.5189 O   0  0  0  0  0  0  0  0  0  0  0  0
   13.4906   33.6729   14.3476 N   0  0  0  0  0  0  0  0  0  0  0  0
   11.8872   32.1604   15.5334 C   0  0  0  0  0  0  0  0  0  0  0  0
   12.5695   33.3798   15.3574 C   0  0  0  0  0  0  0  0  0  0  0  0
    9.2263   33.7071   17.4376 O   0  0  0  0  0  0  0  0  0  0  0  0
   14.0545   35.5365   11.5487 O   0  0  0  0  0  0  0  0  0  0  0  0
   14.4126   34.6530   14.7949 C   0  0  0  0  0  0  0  0  0  0  0  0
   14.4379   35.8292   13.8758 C   0  0  0  0  0  0  0  0  0  0  0  0
   10.6374   32.2537   16.2313 C   0  0  0  0  0  0  0  0  0  0  0  0
   14.9912   35.4070   12.5111 C   0  0  0  0  0  0  0  0  0  0  0  0
   11.2481   34.4910   16.9418 N   0  0  0  0  0  0  0  0  0  0  0  0
   12.3427   34.4654   16.2437 C   0  0  0  0  0  0  0  0  0  0  0  0
  1  6  2  0
  1 10  1  0
  1 12  1  0
  2 11  2  0
  3  5  1  0
  3  8  1  0
  4  5  1  0
  4 10  2  0
  5 13  1  0
  7 11  1  0
  8  9  1  0
  9 11  1  0
 12 13  2  0
M  END
>  <ID>  (1) 
conformer_0

$$$$
