
     RDKit          3D

 13 14  0  0  0  0  0  0  0  0999 V2000
   14.6940   35.4518   13.7746 C   0  0  0  0  0  0  0  0  0  0  0  0
   14.0772   35.6096   12.3547 O   0  0  0  0  0  0  0  0  0  0  0  0
   12.0164   33.7929   15.8787 C   0  0  0  0  0  0  0  0  0  0  0  0
   15.1818   35.2529   11.4793 C   0  0  0  0  0  0  0  0  0  0  0  0
   11.9308   36.1238   16.4063 C   0  0  0  0  0  0  0  0  0  0  0  0
   11.2951   32.6236   16.2593 N   0  0  0  0  0  0  0  0  0  0  0  0
   10.2768   34.3364   17.2085 C   0  0  0  0  0  0  0  0  0  0  0  0
   13.0632   34.0099   15.0433 C   0  0  0  0  0  0  0  0  0  0  0  0
   13.0185   36.3557   15.5458 C   0  0  0  0  0  0  0  0  0  0  0  0
   13.5599   35.2777   14.8070 C   0  0  0  0  0  0  0  0  0  0  0  0
   11.7150   31.3291   15.9168 C   0  0  0  0  0  0  0  0  0  0  0  0
   10.1992   32.9486   17.0288 N   0  0  0  0  0  0  0  0  0  0  0  0
   11.4046   34.8605   16.5352 C   0  0  0  0  0  0  0  0  0  0  0  0
  1  2  1  0
  1 10  1  0
  2  4  1  0
  3  6  1  0
  3  8  1  0
  3 13  2  0
  5  9  2  0
  5 13  1  0
  6 11  1  0
  6 12  1  0
  7 12  1  0
  7 13  1  0
  8 10  2  0
  9 10  1  0
M  END
>  <ID>  (1) 
conformer_0

$$$$
