
     RDKit          3D

 14 15  0  0  0  0  0  0  0  0999 V2000
   11.1730   35.9551   17.0764 C   0  0  0  0  0  0  0  0  0  0  0  0
   11.1787   37.2788   17.7124 C   0  0  0  0  0  0  0  0  0  0  0  0
   13.5340   35.1839   13.5465 C   0  0  0  0  0  0  0  0  0  0  0  0
   12.1403   35.6965   16.1864 N   0  0  0  0  0  0  0  0  0  0  0  0
   15.2537   33.6975   13.6676 C   0  0  0  0  0  0  0  0  0  0  0  0
   10.2550   35.0294   17.4223 N   0  0  0  0  0  0  0  0  0  0  0  0
   16.8374   32.9790   13.5429 Cl  0  0  0  0  0  0  0  0  0  0  0  0
   14.3909   33.4036   14.7279 C   0  0  0  0  0  0  0  0  0  0  0  0
   12.2535   34.4954   15.6539 C   0  0  0  0  0  0  0  0  0  0  0  0
   14.6872   34.7289   12.8688 C   0  0  0  0  0  0  0  0  0  0  0  0
   13.3370   34.3376   14.6749 C   0  0  0  0  0  0  0  0  0  0  0  0
   11.4009   33.4570   16.0454 C   0  0  0  0  0  0  0  0  0  0  0  0
   15.0478   35.2558   11.5928 N   0  0  0  0  0  0  0  0  0  0  0  0
   10.3815   33.7652   16.9037 C   0  0  0  0  0  0  0  0  0  0  0  0
  1  2  1  0
  1  4  2  0
  1  6  1  0
  3 10  1  0
  3 11  1  0
  4  9  1  0
  5  7  1  0
  5  8  1  0
  5 10  1  0
  6 14  2  0
  8 11  1  0
  9 11  1  0
  9 12  2  0
 10 13  1  0
 12 14  1  0
M  END
>  <ID>  (1) 
conformer_0

$$$$
