
     RDKit          3D

 11 11  0  0  0  0  0  0  0  0999 V2000
   13.5514   35.6695   11.7811 N   0  0  0  0  0  0  0  0  0  0  0  0
   10.5452   33.3884   17.1128 C   0  0  0  0  0  0  0  0  0  0  0  0
   13.2368   34.5118   15.0090 C   0  0  0  0  0  0  0  0  0  0  0  0
   12.4905   32.3019   15.6236 C   0  0  0  0  0  0  0  0  0  0  0  0
   13.7669   35.7134   15.2127 C   0  0  0  0  0  0  0  0  0  0  0  0
   14.2133   36.1858   13.9990 N   0  0  0  0  0  0  0  0  0  0  0  0
   13.4478   34.1687   13.6826 C   0  0  0  0  0  0  0  0  0  0  0  0
   13.8819   35.3007   13.0552 C   0  0  0  0  0  0  0  0  0  0  0  0
   11.5127   34.1155   16.6393 N   0  0  0  0  0  0  0  0  0  0  0  0
   10.0449   32.2863   16.9293 N   0  0  0  0  0  0  0  0  0  0  0  0
   12.4533   33.6399   15.8265 C   0  0  0  0  0  0  0  0  0  0  0  0
  1  8  2  0
  2  9  1  0
  2 10  2  0
  3  5  1  0
  3  7  1  0
  3 11  1  0
  4 11  1  0
  5  6  1  0
  6  8  1  0
  7  8  1  0
  9 11  2  3
M  END
>  <ID>  (1) 
conformer_0

$$$$
