
     RDKit          3D

  7  6  0  0  0  0  0  0  0  0999 V2000
   13.5970   35.3882   13.9700 C   0  0  0  0  0  0  0  0  0  0  0  0
   13.8108   36.4922   14.5379 O   0  0  0  0  0  0  0  0  0  0  0  0
   12.1232   33.7657   15.0695 C   0  0  0  0  0  0  0  0  0  0  0  0
   13.5294   34.2227   14.9231 C   0  0  0  0  0  0  0  0  0  0  0  0
   11.7256   33.5734   16.5164 C   0  0  0  0  0  0  0  0  0  0  0  0
   10.5593   32.4551   16.6010 C   0  0  0  0  0  0  0  0  0  0  0  0
   13.1306   35.2301   12.7799 O   0  0  0  0  0  0  0  0  0  0  0  0
  1  2  2  0
  1  4  1  0
  1  7  1  0
  3  4  1  0
  3  5  1  0
  5  6  1  0
M  END
>  <ID>  (1) 
conformer_0

$$$$
