
     RDKit          3D

 11 11  0  0  0  0  0  0  0  0999 V2000
    9.6168   33.6123   17.5314 O   0  0  0  0  0  0  0  0  0  0  0  0
   14.3759   35.7339   11.3787 N   0  0  0  0  0  0  0  0  0  0  0  0
   14.2009   35.4332   13.8195 C   0  0  0  0  0  0  0  0  0  0  0  0
   12.4066   35.4349   15.7562 C   0  0  0  0  0  0  0  0  0  0  0  0
   11.5767   34.4204   16.3523 C   0  0  0  0  0  0  0  0  0  0  0  0
   13.0325   33.4503   14.9643 C   0  0  0  0  0  0  0  0  0  0  0  0
   11.6395   31.9004   16.2756 C   0  0  0  0  0  0  0  0  0  0  0  0
   13.9454   34.8854   12.4189 C   0  0  0  0  0  0  0  0  0  0  0  0
   12.0243   33.2256   15.9152 C   0  0  0  0  0  0  0  0  0  0  0  0
   10.4320   34.7132   17.1705 C   0  0  0  0  0  0  0  0  0  0  0  0
   13.2823   34.8044   14.8495 C   0  0  0  0  0  0  0  0  0  0  0  0
  1 10  1  0
  2  8  1  0
  3  8  1  0
  3 11  1  0
  4  5  1  0
  4 11  1  0
  5  9  2  0
  5 10  1  0
  6  9  1  0
  6 11  1  0
  7  9  1  0
M  END
>  <ID>  (1) 
conformer_0

$$$$
