
     RDKit          3D

 12 13  0  0  0  0  0  0  0  0999 V2000
   11.2329   32.4350   16.0758 N   0  0  0  0  0  0  0  0  0  0  0  0
   14.0011   32.7916   14.9705 C   0  0  0  0  0  0  0  0  0  0  0  0
   10.0092   32.5328   16.7775 N   0  0  0  0  0  0  0  0  0  0  0  0
   14.9997   34.9399   13.7352 C   0  0  0  0  0  0  0  0  0  0  0  0
   13.1349   33.9125   15.4816 C   0  0  0  0  0  0  0  0  0  0  0  0
   15.1237   35.2471   11.2836 C   0  0  0  0  0  0  0  0  0  0  0  0
    9.9378   33.7565   17.2123 N   0  0  0  0  0  0  0  0  0  0  0  0
   11.8570   33.6318   16.0901 C   0  0  0  0  0  0  0  0  0  0  0  0
   15.0579   33.3675   13.9553 C   0  0  0  0  0  0  0  0  0  0  0  0
   15.9746   35.3084   12.5932 C   0  0  0  0  0  0  0  0  0  0  0  0
   11.0807   34.4602   16.8041 N   0  0  0  0  0  0  0  0  0  0  0  0
   13.7309   35.3720   14.9621 S   0  0  0  0  0  0  0  0  0  0  0  0
  1  3  1  0
  1  8  2  0
  2  5  1  0
  2  9  1  0
  3  7  1  0
  4  9  2  0
  4 10  1  0
  4 12  1  0
  5  8  1  0
  5 12  1  0
  6 10  1  0
  7 11  1  0
  8 11  1  0
M  END
>  <ID>  (1) 
conformer_0

$$$$
