
     RDKit          3D

 23 25  0  0  0  0  0  0  0  0999 V2000
   12.1520   31.7074   15.3422 C   0  0  0  0  0  0  0  0  0  0  0  0
   13.0421   36.8514   15.1841 O   0  0  0  0  0  0  0  0  0  0  0  0
   14.9861   33.5416   14.3938 C   0  0  0  0  0  0  0  0  0  0  0  0
   16.0365   35.5906   11.1541 N   0  0  0  0  0  0  0  0  0  0  0  0
   17.0313   35.2880   13.2058 O   0  0  0  0  0  0  0  0  0  0  0  0
   16.0063   31.1682   13.8089 C   0  0  0  0  0  0  0  0  0  0  0  0
   15.2148   32.0293   14.8029 C   0  0  0  0  0  0  0  0  0  0  0  0
   12.1049   30.4431   15.2279 O   0  0  0  0  0  0  0  0  0  0  0  0
   15.7722   35.0515   12.5047 C   0  0  0  0  0  0  0  0  0  0  0  0
    9.5046   33.5272   17.5220 O   0  0  0  0  0  0  0  0  0  0  0  0
   13.1970   34.8698   13.3094 C   0  0  0  0  0  0  0  0  0  0  0  0
   11.4400   33.7447   16.3094 C   0  0  0  0  0  0  0  0  0  0  0  0
   13.3321   33.9328   14.5914 C   0  0  0  0  0  0  0  0  0  0  0  0
   12.6852   32.5169   14.2298 C   0  0  0  0  0  0  0  0  0  0  0  0
   10.3951   34.3234   17.0450 C   0  0  0  0  0  0  0  0  0  0  0  0
   12.2465   35.9481   15.8122 C   0  0  0  0  0  0  0  0  0  0  0  0
   10.3660   35.6940   17.2481 C   0  0  0  0  0  0  0  0  0  0  0  0
   14.3565   35.6770   12.7822 C   0  0  0  0  0  0  0  0  0  0  0  0
   14.9082   35.6777   10.2839 N   0  0  0  0  0  0  0  0  0  0  0  0
   11.3082   36.5192   16.6493 C   0  0  0  0  0  0  0  0  0  0  0  0
   11.5742   32.3598   16.3594 O   0  0  0  0  0  0  0  0  0  0  0  0
   12.3386   34.5696   15.6320 C   0  0  0  0  0  0  0  0  0  0  0  0
   15.5491   33.5535   12.8768 C   0  0  0  0  0  0  0  0  0  0  0  0
  1  8  2  0
  1 14  1  0
  1 21  1  0
  2 16  1  0
  3  7  1  0
  3 13  1  0
  3 23  1  0
  4  9  1  0
  4 19  1  0
  5  9  1  0
  6  7  1  0
  9 18  1  0
  9 23  1  0
 10 15  1  0
 11 13  1  0
 11 18  1  0
 12 15  1  0
 12 21  1  0
 12 22  1  0
 13 14  1  0
 13 22  1  0
 15 17  2  0
 16 20  2  0
 16 22  1  0
 17 20  1  0
M  END
>  <ID>  (1) 
conformer_0

$$$$
