
     RDKit          3D

 10 10  0  0  0  0  0  0  0  0999 V2000
   12.6448   33.1123   14.8800 C   0  0  0  0  0  0  0  0  0  0  0  0
   12.5726   35.2614   15.9276 C   0  0  0  0  0  0  0  0  0  0  0  0
   11.0050   33.5549   16.5997 C   0  0  0  0  0  0  0  0  0  0  0  0
   13.9020   35.8389   11.8789 O   0  0  0  0  0  0  0  0  0  0  0  0
   11.5269   34.8370   16.7158 C   0  0  0  0  0  0  0  0  0  0  0  0
   13.1314   34.3970   15.0096 C   0  0  0  0  0  0  0  0  0  0  0  0
   13.9039   34.6522   12.6094 C   0  0  0  0  0  0  0  0  0  0  0  0
   11.6187   32.6837   15.6779 C   0  0  0  0  0  0  0  0  0  0  0  0
    9.9742   33.1736   17.3369 O   0  0  0  0  0  0  0  0  0  0  0  0
   14.2743   34.8833   14.0817 C   0  0  0  0  0  0  0  0  0  0  0  0
  1  6  2  0
  1  8  1  0
  2  5  2  0
  2  6  1  0
  3  5  1  0
  3  8  2  0
  3  9  1  0
  4  7  1  0
  6 10  1  0
  7 10  1  0
M  END
>  <ID>  (1) 
conformer_0

$$$$
