
     RDKit          3D

 14 14  0  0  0  0  0  0  0  0999 V2000
   11.4225   33.1886   16.1841 C   0  0  0  0  0  0  0  0  0  0  0  0
   15.1515   36.5467   14.3716 O   0  0  0  0  0  1  0  0  0  0  0  0
   14.3592   35.3887   12.3165 N   0  0  0  0  0  0  0  0  0  0  0  0
   10.2864   32.5064   16.8463 C   0  0  0  0  0  0  0  0  0  0  0  0
   12.2859   32.4702   15.3267 C   0  0  0  0  0  0  0  0  0  0  0  0
    9.6141   33.4072   17.7332 O   0  0  0  0  0  0  0  0  0  0  0  0
   13.5280   34.4946   14.8143 C   0  0  0  0  0  0  0  0  0  0  0  0
   12.7745   36.9294   16.1482 Cl  0  0  0  0  0  0  0  0  0  0  0  0
   13.2982   33.1274   14.6604 C   0  0  0  0  0  0  0  0  0  0  0  0
   11.6786   34.5525   16.3928 C   0  0  0  0  0  0  0  0  0  0  0  0
   12.6751   35.2043   15.7342 C   0  0  0  0  0  0  0  0  0  0  0  0
   14.8409   35.2324   13.8753 S   0  0  0  0  0  4  0  0  0  0  0  0
   15.9124   34.2643   13.9055 O   0  0  0  0  0  1  0  0  0  0  0  0
   12.8743   35.5347   11.9701 C   0  0  0  0  0  0  0  0  0  0  0  0
  1  4  1  0
  1  5  1  0
  1 10  1  0
  2 12  1  0
  3 12  1  0
  3 14  1  0
  4  6  1  0
  5  9  2  0
  7  9  1  0
  7 11  1  0
  7 12  1  0
  8 11  1  0
 10 11  2  0
 12 13  1  0
M  END
>  <ID>  (1) 
conformer_0

$$$$
