
     RDKit          3D

 11 11  0  0  0  0  0  0  0  0999 V2000
   15.8985   35.2959   13.0154 O   0  0  0  0  0  0  0  0  0  0  0  0
   11.7674   35.1921   16.3947 C   0  0  0  0  0  0  0  0  0  0  0  0
   12.6651   34.3791   15.6957 C   0  0  0  0  0  0  0  0  0  0  0  0
   13.8343   35.0078   14.9107 C   0  0  0  0  0  0  0  0  0  0  0  0
   10.5237   33.2372   17.0116 N   0  0  0  0  0  0  0  0  0  0  0  0
   14.7380   35.2301   12.5436 C   0  0  0  0  0  0  0  0  0  0  0  0
   14.4505   35.5387   11.2506 N   0  0  0  0  0  0  0  0  0  0  0  0
   13.4941   35.1770   13.3974 C   0  0  0  0  0  0  0  0  0  0  0  0
   10.6970   34.5801   17.0281 C   0  0  0  0  0  0  0  0  0  0  0  0
   11.4392   32.4560   16.3308 C   0  0  0  0  0  0  0  0  0  0  0  0
   12.5169   32.9794   15.6872 C   0  0  0  0  0  0  0  0  0  0  0  0
  1  6  2  0
  2  3  2  0
  2  9  1  0
  3  4  1  0
  3 11  1  0
  4  8  1  0
  5  9  2  0
  5 10  1  0
  6  7  1  0
  6  8  1  0
 10 11  2  0
M  END
>  <ID>  (1) 
conformer_0

$$$$
