
     RDKit          3D

 17 19  0  0  0  0  0  0  0  0999 V2000
   11.5385   35.3313   16.5742 C   0  0  0  0  0  0  0  0  0  0  0  0
   11.8297   32.4820   15.8225 C   0  0  0  0  0  0  0  0  0  0  0  0
   13.2332   35.8252   15.1208 N   0  0  0  0  0  0  0  0  0  0  0  0
   15.1890   35.6058   13.6967 C   0  0  0  0  0  0  0  0  0  0  0  0
   10.6949   32.3367   16.5886 C   0  0  0  0  0  0  0  0  0  0  0  0
   10.2281   31.1187   16.7344 N   0  0  0  0  0  0  0  0  0  0  0  0
   12.9823   35.5996   12.7740 C   0  0  0  0  0  0  0  0  0  0  0  0
   15.7038   35.4588   12.4085 C   0  0  0  0  0  0  0  0  0  0  0  0
   10.0138   33.4192   17.2293 N   0  0  0  0  0  0  0  0  0  0  0  0
   13.0143   36.9507   15.8823 C   0  0  0  0  0  0  0  0  0  0  0  0
   12.4193   34.8286   15.6460 N   0  0  0  0  0  0  0  0  0  0  0  0
   11.9783   36.6844   16.7704 C   0  0  0  0  0  0  0  0  0  0  0  0
   13.4666   35.4872   11.5040 C   0  0  0  0  0  0  0  0  0  0  0  0
   10.4478   34.6938   17.1634 C   0  0  0  0  0  0  0  0  0  0  0  0
   14.8384   35.3645   11.3048 C   0  0  0  0  0  0  0  0  0  0  0  0
   13.8311   35.6805   13.8776 C   0  0  0  0  0  0  0  0  0  0  0  0
   12.5585   33.4831   15.3434 C   0  0  0  0  0  0  0  0  0  0  0  0
  1 11  1  0
  1 12  1  0
  1 14  1  0
  2  5  1  0
  2 17  2  0
  3 10  1  0
  3 11  1  0
  3 16  1  0
  4  8  2  0
  4 16  1  0
  5  6  2  0
  5  9  1  0
  7 13  1  0
  7 16  2  0
  8 15  1  0
  9 14  2  0
 10 12  1  0
 11 17  1  0
 13 15  2  0
M  END
>  <ID>  (1) 
conformer_0

$$$$
