
     RDKit          3D

 12 12  0  0  0  0  0  0  0  0999 V2000
   12.5579   32.9271   14.5797 C   0  0  0  0  0  0  0  0  0  0  0  0
   11.4996   31.7076   16.3909 F   0  0  0  0  0  0  0  0  0  0  0  0
   10.9107   34.1821   17.5255 F   0  0  0  0  0  0  0  0  0  0  0  0
   11.9454   32.9229   15.7957 C   0  0  0  0  0  0  0  0  0  0  0  0
   13.3479   34.1400   12.5730 C   0  0  0  0  0  0  0  0  0  0  0  0
   11.7949   34.1270   16.5014 C   0  0  0  0  0  0  0  0  0  0  0  0
   13.1132   34.1050   14.0629 C   0  0  0  0  0  0  0  0  0  0  0  0
   14.0376   36.2669   14.7087 O   0  0  0  0  0  0  0  0  0  0  0  0
   12.5313   35.2260   16.1466 C   0  0  0  0  0  0  0  0  0  0  0  0
   15.2412   35.7706   12.2868 O   0  0  0  0  0  0  0  0  0  0  0  0
   13.2558   35.2019   14.9217 C   0  0  0  0  0  0  0  0  0  0  0  0
   14.0566   35.1497   11.8251 C   0  0  0  0  0  0  0  0  0  0  0  0
  1  4  2  0
  1  7  1  0
  2  4  1  0
  3  6  1  0
  4  6  1  0
  5  7  1  0
  5 12  1  0
  6  9  1  0
  7 11  1  0
  8 11  1  0
  9 11  2  0
 10 12  1  0
M  END
>  <ID>  (1) 
conformer_0

$$$$
