
     RDKit          3D

 18 20  0  0  0  0  0  0  0  0999 V2000
    9.6455   34.4160   17.4802 O   0  0  0  0  0  0  0  0  0  0  0  0
   13.3669   35.1314   15.0583 C   0  0  0  0  0  0  0  0  0  0  0  0
   14.0233   36.1915   11.6761 O   0  0  0  0  0  0  0  0  0  0  0  0
   12.3507   33.0241   15.5689 C   0  0  0  0  0  0  0  0  0  0  0  0
   13.9311   35.9580   14.0570 C   0  0  0  0  0  0  0  0  0  0  0  0
   14.1865   33.2603   13.7755 C   0  0  0  0  0  0  0  0  0  0  0  0
   12.5117   35.2606   16.3104 C   0  0  0  0  0  0  0  0  0  0  0  0
   11.9921   31.7407   15.5380 N   0  0  0  0  0  0  0  0  0  0  0  0
   10.0511   32.2560   16.7987 N   0  0  0  0  0  0  0  0  0  0  0  0
   13.3618   33.7174   14.7684 C   0  0  0  0  0  0  0  0  0  0  0  0
   14.4495   34.0639   12.6925 C   0  0  0  0  0  0  0  0  0  0  0  0
   10.4458   33.5375   16.9213 C   0  0  0  0  0  0  0  0  0  0  0  0
   11.6834   33.9654   16.4017 C   0  0  0  0  0  0  0  0  0  0  0  0
   14.9123   31.9534   13.9890 C   0  0  0  0  0  0  0  0  0  0  0  0
   12.8056   36.1747   17.2083 O   0  0  0  0  0  0  0  0  0  0  0  0
   14.3652   37.2382   14.4228 O   0  0  0  0  0  0  0  0  0  0  0  0
   14.1873   35.4476   12.8239 C   0  0  0  0  0  0  0  0  0  0  0  0
   10.8724   31.3593   16.1401 C   0  0  0  0  0  0  0  0  0  0  0  0
  1 12  2  0
  2  5  1  0
  2  7  1  0
  2 10  1  0
  3 17  1  0
  4  8  1  0
  4 10  1  0
  4 13  2  0
  5 16  1  0
  5 17  1  0
  6 10  1  0
  6 11  1  0
  6 14  1  0
  7 13  1  0
  7 15  1  0
  8 18  2  0
  9 12  1  0
  9 18  1  0
 11 17  1  0
 12 13  1  0
M  END
>  <ID>  (1) 
conformer_0

$$$$
