
     RDKit          3D

 19 20  0  0  0  0  0  0  0  0999 V2000
   12.3765   34.9760   16.0175 C   0  0  0  0  0  0  0  0  0  0  0  0
   11.8665   36.1396   16.8086 C   0  0  0  0  0  0  0  0  0  0  0  0
   10.3228   34.2686   17.0307 C   0  0  0  0  0  0  0  0  0  0  0  0
   16.1650   34.5524   12.2377 C   0  0  0  0  0  0  0  0  0  0  0  0
   17.5163   35.0792   12.9264 C   0  0  0  0  0  0  0  0  0  0  0  0
   15.7221   33.4264   13.1250 C   0  0  0  0  0  0  0  0  0  0  0  0
   11.4190   33.8729   16.2404 C   0  0  0  0  0  0  0  0  0  0  0  0
   13.3796   34.6265   15.1536 C   0  0  0  0  0  0  0  0  0  0  0  0
   17.4447   36.7930   11.3527 N   0  0  0  0  0  0  0  0  0  0  0  0
   10.4824   35.7240   17.3271 C   0  0  0  0  0  0  0  0  0  0  0  0
    9.4567   33.5367   17.4114 O   0  0  0  0  0  0  0  0  0  0  0  0
   15.0374   35.2421   11.7194 O   0  0  0  0  0  0  0  0  0  0  0  0
   12.7022   32.4027   14.7701 C   0  0  0  0  0  0  0  0  0  0  0  0
   16.8350   32.6473   13.8293 C   0  0  0  0  0  0  0  0  0  0  0  0
   11.6710   32.6482   15.6508 C   0  0  0  0  0  0  0  0  0  0  0  0
   13.9206   35.6328   15.2786 N   0  0  0  0  0  0  0  0  0  0  0  0
   13.5841   33.4297   14.4278 C   0  0  0  0  0  0  0  0  0  0  0  0
   17.4506   36.6460   12.8543 C   0  0  0  0  0  0  0  0  0  0  0  0
   14.4675   33.1908   13.4536 N   0  0  0  0  0  0  0  0  0  0  0  0
  1  2  1  0
  1  7  2  0
  1  8  1  0
  2 10  1  0
  3  7  1  0
  3 10  1  0
  3 11  2  0
  4  5  1  0
  4  6  1  0
  4 12  1  0
  5 18  1  0
  6 14  1  0
  6 19  1  0
  7 15  1  0
  8 16  2  0
  8 17  1  0
  9 18  1  0
 13 15  1  0
 13 17  2  0
 17 19  1  0
M  END
>  <ID>  (1) 
conformer_0

$$$$
