
     RDKit          3D

 12 12  0  0  0  0  0  0  0  0999 V2000
   13.5687   34.4134   14.0975 C   0  0  0  0  0  0  0  0  0  0  0  0
   10.0311   34.1685   17.4078 N   0  0  0  0  0  0  0  0  0  0  0  0
   14.4151   33.5403   12.7607 S   0  0  0  0  0  0  0  0  0  0  0  0
   12.2361   35.8090   16.1036 C   0  0  0  0  0  0  0  0  0  0  0  0
   12.7700   33.7186   14.9705 N   0  0  0  0  0  0  0  0  0  0  0  0
   13.7488   35.8026   14.1878 C   0  0  0  0  0  0  0  0  0  0  0  0
   13.1091   37.7969   15.1633 O   0  0  0  0  0  0  0  0  0  0  0  0
   12.0624   34.3972   15.9861 C   0  0  0  0  0  0  0  0  0  0  0  0
   11.2211   32.2118   16.9101 C   0  0  0  0  0  0  0  0  0  0  0  0
   13.0409   36.4466   15.1614 C   0  0  0  0  0  0  0  0  0  0  0  0
   11.1871   33.6875   16.9475 C   0  0  0  0  0  0  0  0  0  0  0  0
    9.9210   31.8007   16.3785 N   0  0  0  0  0  0  0  0  0  0  0  0
  1  3  2  0
  1  5  1  0
  1  6  1  0
  2 11  1  0
  4  8  2  0
  4 10  1  0
  5  8  1  0
  6 10  2  0
  7 10  1  0
  8 11  1  0
  9 11  1  0
  9 12  1  0
M  END
>  <ID>  (1) 
conformer_0

$$$$
