
     RDKit          3D

 18 19  0  0  0  0  0  0  0  0999 V2000
   10.6463   34.2012   16.8477 C   0  0  0  0  0  0  0  0  0  0  0  0
   12.3520   36.1325   16.1452 C   0  0  0  0  0  0  0  0  0  0  0  0
   14.5452   35.2423   14.0309 C   0  0  0  0  0  0  0  0  0  0  0  0
    9.7110   33.2755   17.1349 N   0  0  0  0  0  0  0  0  0  0  0  0
   14.8104   35.4381   11.6280 O   0  0  0  0  0  0  0  0  0  0  0  0
   14.0923   36.5040   13.9435 O   0  0  0  0  0  0  0  0  0  0  0  0
   11.7696   33.8508   16.1225 C   0  0  0  0  0  0  0  0  0  0  0  0
   13.7817   34.4187   14.9174 N   0  0  0  0  0  0  0  0  0  0  0  0
   15.2302   34.7659   12.8015 C   0  0  0  0  0  0  0  0  0  0  0  0
   16.5867   34.1664   12.8962 C   0  0  0  0  0  0  0  0  0  0  0  0
   11.9927   32.4820   15.7969 C   0  0  0  0  0  0  0  0  0  0  0  0
    9.9162   32.0708   16.7617 C   0  0  0  0  0  0  0  0  0  0  0  0
   10.9588   31.5783   16.1118 C   0  0  0  0  0  0  0  0  0  0  0  0
   16.8886   33.5723   14.2133 O   0  0  0  0  0  0  0  0  0  0  0  0
   13.0638   31.9512   15.3185 O   0  0  0  0  0  0  0  0  0  0  0  0
   10.5017   35.4383   17.3375 N   0  0  0  0  0  0  0  0  0  0  0  0
   11.3382   36.4040   17.0048 C   0  0  0  0  0  0  0  0  0  0  0  0
   12.6859   34.8502   15.6928 C   0  0  0  0  0  0  0  0  0  0  0  0
  1  4  1  0
  1  7  1  0
  1 16  2  0
  2 17  2  0
  2 18  1  0
  3  6  2  0
  3  8  1  0
  3  9  1  0
  4 12  2  0
  5  9  1  0
  7 11  1  0
  7 18  2  0
  8 18  1  0
  9 10  1  0
 10 14  1  0
 11 13  2  0
 11 15  1  0
 12 13  1  0
 16 17  1  0
M  END
>  <ID>  (1) 
conformer_0

$$$$
