
     RDKit          3D

  9  9  0  0  0  0  0  0  0  0999 V2000
   11.7103   32.7028   15.5819 C   0  0  0  0  0  0  0  0  0  0  0  0
   13.8343   35.2842   13.8775 C   0  0  0  0  0  0  0  0  0  0  0  0
   12.5438   33.2866   14.7290 N   0  0  0  0  0  0  0  0  0  0  0  0
   12.5890   35.2481   16.1044 C   0  0  0  0  0  0  0  0  0  0  0  0
   14.6014   36.3858   14.4757 N   0  0  0  0  0  0  0  0  0  0  0  0
   11.6894   34.6618   16.9020 N   0  0  0  0  0  0  0  0  0  0  0  0
   12.9534   34.5823   14.9496 C   0  0  0  0  0  0  0  0  0  0  0  0
   11.1738   33.4256   16.6617 C   0  0  0  0  0  0  0  0  0  0  0  0
   10.2072   32.9233   17.4182 O   0  0  0  0  0  0  0  0  0  0  0  0
  1  3  2  0
  1  8  1  0
  2  5  1  0
  2  7  1  0
  3  7  1  0
  4  6  2  0
  4  7  1  0
  6  8  1  0
  8  9  2  0
M  END
>  <ID>  (1) 
conformer_0

$$$$
