
     RDKit          3D

 10 10  0  0  0  0  0  0  0  0999 V2000
   11.8559   34.5213   16.6799 C   0  0  0  0  0  0  0  0  0  0  0  0
   13.2542   35.5485   12.7933 C   0  0  0  0  0  0  0  0  0  0  0  0
   12.5355   32.7482   14.6733 C   0  0  0  0  0  0  0  0  0  0  0  0
   11.6654   32.3549   15.6763 C   0  0  0  0  0  0  0  0  0  0  0  0
   12.9902   34.0386   14.6430 C   0  0  0  0  0  0  0  0  0  0  0  0
   12.7088   34.9149   15.6570 C   0  0  0  0  0  0  0  0  0  0  0  0
   10.3116   32.9314   17.5284 O   0  0  0  0  0  0  0  0  0  0  0  0
   12.9308   35.8383   11.5914 N   0  0  0  0  0  0  0  0  0  0  0  0
   13.7131   34.5166   13.4751 N   0  0  0  0  0  0  0  0  0  0  0  0
   11.2651   33.2624   16.6504 C   0  0  0  0  0  0  0  0  0  0  0  0
  1  6  2  0
  1 10  1  0
  2  8  2  0
  2  9  1  0
  3  4  1  0
  3  5  2  0
  4 10  2  0
  5  6  1  0
  5  9  1  0
  7 10  1  0
M  END
>  <ID>  (1) 
conformer_0

$$$$
