
     RDKit          3D

 18 19  0  0  0  0  0  0  0  0999 V2000
   13.4724   34.7343   14.7521 C   0  0  0  0  0  0  0  0  0  0  0  0
   10.0044   32.8527   17.0163 N   0  0  0  0  0  0  0  0  0  0  0  0
   11.6827   34.7290   16.3505 C   0  0  0  0  0  0  0  0  0  0  0  0
   14.0899   34.1903   13.6798 N   0  0  0  0  0  0  0  0  0  0  0  0
   13.7673   35.9980   15.1363 N   0  0  0  0  0  0  0  0  0  0  0  0
   12.4839   33.9968   15.4447 C   0  0  0  0  0  0  0  0  0  0  0  0
   11.6031   31.6474   15.6374 C   0  0  0  0  0  0  0  0  0  0  0  0
   16.7922   33.7012   12.7470 C   0  0  0  0  0  0  0  0  0  0  0  0
   15.0081   34.9747   11.4754 C   0  0  0  0  0  0  0  0  0  0  0  0
    9.7481   35.0059   17.7525 N   0  0  0  0  0  0  0  0  0  0  0  0
   10.5001   34.1643   17.0142 C   0  0  0  0  0  0  0  0  0  0  0  0
   16.2518   35.0595   12.4148 C   0  0  0  0  0  0  0  0  0  0  0  0
   16.5722   32.8446   14.0632 C   0  0  0  0  0  0  0  0  0  0  0  0
   11.9680   36.0048   16.6518 N   0  0  0  0  0  0  0  0  0  0  0  0
   10.4614   31.7389   16.4492 C   0  0  0  0  0  0  0  0  0  0  0  0
   13.7895   34.5424   12.3027 C   0  0  0  0  0  0  0  0  0  0  0  0
   12.3842   32.6231   15.2355 C   0  0  0  0  0  0  0  0  0  0  0  0
   13.0175   36.5728   16.0642 C   0  0  0  0  0  0  0  0  0  0  0  0
  1  4  1  0
  1  5  2  0
  1  6  1  0
  2 11  1  0
  2 15  2  0
  3  6  2  0
  3 11  1  0
  3 14  1  0
  4 16  1  0
  5 18  1  0
  6 17  1  0
  7 15  1  0
  7 17  2  0
  8 12  1  0
  8 13  1  0
  9 12  1  0
  9 16  1  0
 10 11  2  0
 14 18  2  0
M  END
>  <ID>  (1) 
conformer_0

$$$$
