
     RDKit          3D

 27 32  0  0  0  0  0  0  0  0999 V2000
   13.9188   31.1220   14.0888 C   0  0  0  0  0  0  0  0  0  0  0  0
   10.0067   33.0032   16.6442 N   0  0  0  0  0  0  0  0  0  0  0  0
   11.8769   30.3950   14.9689 C   0  0  0  0  0  0  0  0  0  0  0  0
   15.0274   34.4231   14.5427 C   0  0  0  0  0  0  0  0  0  0  0  0
   17.6417   34.7516   11.7971 C   0  0  0  0  0  0  0  0  0  0  0  0
   14.8962   34.8946   12.0532 C   0  0  0  0  0  0  0  0  0  0  0  0
   13.2507   36.0683   14.7565 C   0  0  0  0  0  0  0  0  0  0  0  0
   15.4536   35.0476   10.8283 C   0  0  0  0  0  0  0  0  0  0  0  0
   13.3152   28.8265   13.9996 C   0  0  0  0  0  0  0  0  0  0  0  0
   17.0439   34.5312   13.0663 C   0  0  0  0  0  0  0  0  0  0  0  0
   12.4334   36.2696   15.8761 C   0  0  0  0  0  0  0  0  0  0  0  0
   11.8737   37.0843   16.7862 C   0  0  0  0  0  0  0  0  0  0  0  0
   15.6747   34.6358   13.1766 C   0  0  0  0  0  0  0  0  0  0  0  0
   13.5324   34.6519   14.5790 C   0  0  0  0  0  0  0  0  0  0  0  0
   12.1411   29.1228   14.6181 N   0  0  0  0  0  0  0  0  0  0  0  0
   10.6972   30.9041   15.5984 N   0  0  0  0  0  0  0  0  0  0  0  0
   12.1465   32.6421   15.3126 N   0  0  0  0  0  0  0  0  0  0  0  0
   16.8446   34.9892   10.6926 C   0  0  0  0  0  0  0  0  0  0  0  0
   11.7786   34.9599   16.0885 C   0  0  0  0  0  0  0  0  0  0  0  0
   13.2938   36.8896   13.8238 O   0  0  0  0  0  0  0  0  0  0  0  0
   12.7354   31.4082   14.7516 C   0  0  0  0  0  0  0  0  0  0  0  0
   10.8367   36.3950   17.4338 N   0  0  0  0  0  0  0  0  0  0  0  0
   14.2318   29.8321   13.7100 C   0  0  0  0  0  0  0  0  0  0  0  0
   10.9312   32.3054   15.8946 C   0  0  0  0  0  0  0  0  0  0  0  0
   12.5225   33.9755   15.3647 C   0  0  0  0  0  0  0  0  0  0  0  0
    9.8472   34.1765   17.2064 N   0  0  0  0  0  0  0  0  0  0  0  0
   10.7674   35.1371   16.9511 C   0  0  0  0  0  0  0  0  0  0  0  0
  1 21  2  0
  1 23  1  0
  2 24  2  0
  2 26  1  0
  3 15  2  0
  3 16  1  0
  3 21  1  0
  4 13  1  0
  4 14  1  0
  5 10  2  0
  5 18  1  0
  6  8  1  0
  6 13  2  0
  7 11  1  0
  7 14  1  0
  7 20  2  0
  8 18  2  0
  9 15  1  0
  9 23  2  0
 10 13  1  0
 11 12  1  0
 11 19  1  0
 12 22  1  0
 14 25  1  0
 16 24  1  0
 17 21  1  0
 17 24  1  0
 17 25  1  0
 19 25  2  0
 19 27  1  0
 22 27  1  0
 26 27  2  0
M  END
>  <ID>  (1) 
conformer_0

$$$$
