
     RDKit          3D

 13 13  0  0  0  0  0  0  0  0999 V2000
   10.2794   32.8712   17.5380 O   0  0  0  0  0  0  0  0  0  0  0  0
   13.4108   33.5166   13.8219 C   0  0  0  0  0  0  0  0  0  0  0  0
   11.2016   33.3521   16.7298 C   0  0  0  0  0  0  0  0  0  0  0  0
   11.8119   32.5160   15.6671 C   0  0  0  0  0  0  0  0  0  0  0  0
   13.3987   37.0463   14.6197 O   0  0  0  0  0  0  0  0  0  0  0  0
   13.2236   35.8663   11.4491 O   0  0  0  0  0  0  0  0  0  0  0  0
   11.6475   34.7049   16.6976 C   0  0  0  0  0  0  0  0  0  0  0  0
   13.6723   34.9052   13.6600 C   0  0  0  0  0  0  0  0  0  0  0  0
   11.4782   31.0717   15.5462 C   0  0  0  0  0  0  0  0  0  0  0  0
   12.6407   33.0076   14.7802 C   0  0  0  0  0  0  0  0  0  0  0  0
   14.3277   35.3539   12.3958 C   0  0  0  0  0  0  0  0  0  0  0  0
   12.4405   35.3158   15.8087 C   0  0  0  0  0  0  0  0  0  0  0  0
   13.1589   35.7422   14.7254 C   0  0  0  0  0  0  0  0  0  0  0  0
  1  3  1  0
  2  8  1  0
  2 10  2  0
  3  4  1  0
  3  7  1  0
  4  9  1  0
  4 10  2  0
  5 13  1  0
  6 11  1  0
  7 12  2  0
  8 11  1  0
  8 13  1  0
 12 13  2  0
M  END
>  <ID>  (1) 
conformer_0

$$$$
