
     RDKit          3D

 12 12  0  0  0  0  0  0  0  0999 V2000
   12.6044   33.5564   15.6452 C   0  0  0  0  0  0  0  0  0  0  0  0
   12.5232   35.7860   16.5515 N   0  0  0  0  0  0  0  0  0  0  0  0
   13.8493   35.2231   14.2113 C   0  0  0  0  0  0  0  0  0  0  0  0
   14.0327   35.6275   11.6816 N   0  0  0  0  0  0  0  0  0  0  0  0
   10.9352   32.1341   16.2481 C   0  0  0  0  0  0  0  0  0  0  0  0
   12.0470   34.6083   16.3404 C   0  0  0  0  0  0  0  0  0  0  0  0
   10.7397   34.2735   16.9278 C   0  0  0  0  0  0  0  0  0  0  0  0
   13.7518   33.9421   14.8249 C   0  0  0  0  0  0  0  0  0  0  0  0
   12.1165   32.3161   15.7038 N   0  0  0  0  0  0  0  0  0  0  0  0
   13.4491   35.3507   12.8714 N   0  0  0  0  0  0  0  0  0  0  0  0
   10.2163   33.1020   16.8422 N   0  0  0  0  0  0  0  0  0  0  0  0
   10.1271   35.2601   17.5424 N   0  0  0  0  0  0  0  0  0  0  0  0
  1  6  1  0
  1  8  1  0
  1  9  1  0
  2  6  2  0
  3  8  1  0
  3 10  1  0
  4 10  1  0
  5  9  2  0
  5 11  1  0
  6  7  1  0
  7 11  1  0
  7 12  2  0
M  END
>  <ID>  (1) 
conformer_0

$$$$
