
     RDKit          3D

 23 25  0  0  0  0  0  0  0  0999 V2000
   12.3394   32.1144   15.6628 N   0  0  0  0  0  0  0  0  0  0  0  0
   14.0014   35.3577   14.6795 N   0  0  0  0  0  0  0  0  0  0  0  0
   14.6369   33.6995   13.2468 C   0  0  0  0  0  0  0  0  0  0  0  0
   14.5670   33.7584   11.8012 C   0  0  0  0  0  0  0  0  0  0  0  0
   10.2426   32.8083   16.8682 C   0  0  0  0  0  0  0  0  0  0  0  0
   12.7406   33.3455   15.5285 C   0  0  0  0  0  0  0  0  0  0  0  0
   12.4222   36.3749   16.4208 C   0  0  0  0  0  0  0  0  0  0  0  0
   12.2304   34.2577   16.0292 C   0  0  0  0  0  0  0  0  0  0  0  0
   13.5540   36.5244   16.6141 C   0  0  0  0  0  0  0  0  0  0  0  0
   13.3422   34.2526   15.2027 C   0  0  0  0  0  0  0  0  0  0  0  0
   11.5340   35.1571   16.6069 C   0  0  0  0  0  0  0  0  0  0  0  0
   10.3848   35.1376   17.2960 N   0  0  0  0  0  0  0  0  0  0  0  0
   16.5368   34.6807   10.3372 C   0  0  0  0  0  0  0  0  0  0  0  0
   16.1701   35.3779   12.7081 C   0  0  0  0  0  0  0  0  0  0  0  0
   15.3782   32.5978   14.0922 C   0  0  0  0  0  0  0  0  0  0  0  0
   11.2199   31.9687   16.3725 C   0  0  0  0  0  0  0  0  0  0  0  0
   16.7172   36.5634   12.6679 O   0  0  0  0  0  0  0  0  0  0  0  0
   11.5757   37.3661   17.0165 C   0  0  0  0  0  0  0  0  0  0  0  0
   17.8575   35.1099   10.6136 O   0  0  0  0  0  0  0  0  0  0  0  0
   15.5512   34.8506   11.4276 C   0  0  0  0  0  0  0  0  0  0  0  0
   13.4198   36.3770   15.4620 C   0  0  0  0  0  0  0  0  0  0  0  0
    9.7759   33.9593   17.3523 C   0  0  0  0  0  0  0  0  0  0  0  0
   15.1049   35.1232   13.7463 C   0  0  0  0  0  0  0  0  0  0  0  0
  1  6  1  0
  1 16  1  0
  2 10  1  0
  2 21  1  0
  2 23  1  0
  3  4  1  0
  3 15  1  0
  3 23  1  0
  4 20  1  0
  5 16  1  0
  5 22  1  0
  6  8  2  0
  6 10  1  0
  7  9  1  0
  7 11  1  0
  7 18  1  0
  8 11  2  0
  9 21  1  0
 11 12  1  0
 12 22  2  0
 13 19  1  0
 13 20  1  0
 14 17  1  0
 14 20  1  0
 14 23  1  0
M  END
>  <ID>  (1) 
conformer_0

$$$$
