
     RDKit          3D

 27 30  0  0  0  0  0  0  0  0999 V2000
   17.2170   32.2741   11.2431 C   0  0  0  0  0  0  0  0  0  0  0  0
   15.5807   35.3510   12.8427 N   0  0  0  0  0  0  0  0  0  0  0  0
   10.7120   31.6404   17.0669 O   0  0  0  0  0  0  0  0  0  0  0  0
   12.9344   36.8179   15.9456 C   0  0  0  0  0  0  0  0  0  0  0  0
   15.6083   33.6712   12.7952 C   0  0  0  0  0  0  0  0  0  0  0  0
   14.9658   35.8837   14.0741 C   0  0  0  0  0  0  0  0  0  0  0  0
   10.0810   35.0562   17.2704 C   0  0  0  0  0  0  0  0  0  0  0  0
   11.9687   33.4036   16.1722 C   0  0  0  0  0  0  0  0  0  0  0  0
    9.8768   33.7411   17.2967 N   0  0  0  0  0  0  0  0  0  0  0  0
   15.1403   32.9264    9.7480 S   0  0  0  0  0  0  0  0  0  0  0  0
   12.1201   34.7791   16.1455 C   0  0  0  0  0  0  0  0  0  0  0  0
   17.7753   36.9430   13.2293 C   0  0  0  0  0  0  0  0  0  0  0  0
   12.8991   32.4388   15.5881 C   0  0  0  0  0  0  0  0  0  0  0  0
   14.5926   35.5033   11.6172 C   0  0  0  0  0  0  0  0  0  0  0  0
   17.8536   34.4364   12.6476 C   0  0  0  0  0  0  0  0  0  0  0  0
   14.0344   35.0871   14.6715 O   0  0  0  0  0  0  0  0  0  0  0  0
   11.2572   35.6403   16.8092 C   0  0  0  0  0  0  0  0  0  0  0  0
   10.8155   32.8792   16.8793 C   0  0  0  0  0  0  0  0  0  0  0  0
   16.5935   34.5427   10.5411 C   0  0  0  0  0  0  0  0  0  0  0  0
   17.0159   35.7328   12.8075 C   0  0  0  0  0  0  0  0  0  0  0  0
   15.3795   36.9505   14.5882 O   0  0  0  0  0  0  0  0  0  0  0  0
   17.6379   31.4519   12.5016 C   0  0  0  0  0  0  0  0  0  0  0  0
   15.0356   34.5247   10.3911 C   0  0  0  0  0  0  0  0  0  0  0  0
   11.8180   36.8557   16.6967 N   0  0  0  0  0  0  0  0  0  0  0  0
   16.7987   33.6330   11.7779 C   0  0  0  0  0  0  0  0  0  0  0  0
   16.6461   32.1202    9.7971 C   0  0  0  0  0  0  0  0  0  0  0  0
   13.1328   35.5262   15.5606 C   0  0  0  0  0  0  0  0  0  0  0  0
  1 22  1  0
  1 25  1  0
  1 26  1  0
  2  6  1  0
  2 14  1  0
  2 20  1  0
  3 18  2  0
  4 24  1  0
  4 27  1  0
  5 25  1  0
  6 16  1  0
  6 21  2  0
  7  9  2  0
  7 17  1  0
  8 11  1  0
  8 13  1  0
  8 18  1  0
  9 18  1  0
 10 23  1  0
 10 26  1  0
 11 17  1  0
 11 27  2  0
 12 20  1  0
 14 23  1  0
 15 20  1  0
 15 25  1  0
 16 27  1  0
 17 24  1  0
 19 23  1  0
 19 25  1  0
M  END
>  <ID>  (1) 
conformer_0

$$$$
