
     RDKit          3D

 14 15  0  0  0  0  0  0  0  0999 V2000
   14.1285   34.5266   14.4612 C   0  0  0  0  0  0  0  0  0  0  0  0
   14.9780   35.1694   11.1455 C   0  0  0  0  0  0  0  0  0  0  0  0
   10.6101   32.9136   16.8673 C   0  0  0  0  0  0  0  0  0  0  0  0
   13.3654   35.3959   15.1141 N   0  0  0  0  0  0  0  0  0  0  0  0
   16.5275   35.1614   11.1065 C   0  0  0  0  0  0  0  0  0  0  0  0
   15.2848   34.7884   13.4981 C   0  0  0  0  0  0  0  0  0  0  0  0
   11.3362   35.2491   16.7068 C   0  0  0  0  0  0  0  0  0  0  0  0
   13.6605   33.2206   14.7775 S   0  0  0  0  0  0  0  0  0  0  0  0
    9.7579   32.1170   17.2162 O   0  0  0  0  0  0  0  0  0  0  0  0
   10.4724   34.2605   17.1316 N   0  0  0  0  0  0  0  0  0  0  0  0
   11.7248   32.4680   16.1572 N   0  0  0  0  0  0  0  0  0  0  0  0
   14.7612   35.7314   12.4851 N   0  0  0  0  0  0  0  0  0  0  0  0
   12.5277   33.4002   15.6570 C   0  0  0  0  0  0  0  0  0  0  0  0
   12.3864   34.7473   15.8524 C   0  0  0  0  0  0  0  0  0  0  0  0
  1  4  1  0
  1  6  1  0
  1  8  1  0
  2  5  1  0
  2 12  1  0
  3  9  2  0
  3 10  1  0
  3 11  1  0
  4 14  1  0
  6 12  1  0
  7 10  1  0
  7 14  1  0
  8 13  1  0
 11 13  2  0
 13 14  1  0
M  END
>  <ID>  (1) 
conformer_0

$$$$
