
     RDKit          3D

 14 16  0  0  0  0  0  0  0  0999 V2000
   13.9685   35.3595   11.3929 N   0  0  0  0  0  0  0  0  0  0  0  0
   12.8632   32.5907   13.7074 C   0  0  0  0  0  0  0  0  0  0  0  0
   10.7408   33.2734   17.1855 C   0  0  0  0  0  0  0  0  0  0  0  0
   13.9794   35.1721   12.7289 C   0  0  0  0  0  0  0  0  0  0  0  0
   10.4590   32.0819   16.5973 N   0  0  0  0  0  0  0  0  0  0  0  0
   12.1274   32.6484   14.9598 C   0  0  0  0  0  0  0  0  0  0  0  0
   14.3073   36.2033   13.6017 N   0  0  0  0  0  0  0  0  0  0  0  0
   12.3645   33.8445   15.6061 C   0  0  0  0  0  0  0  0  0  0  0  0
   13.3415   34.6231   14.8896 C   0  0  0  0  0  0  0  0  0  0  0  0
   13.4766   34.0738   13.4757 N   0  0  0  0  0  0  0  0  0  0  0  0
   14.0811   36.5967   15.9098 O   0  0  0  0  0  0  0  0  0  0  0  0
   11.2301   31.7759   15.4846 C   0  0  0  0  0  0  0  0  0  0  0  0
   11.6655   34.1247   16.7154 N   0  0  0  0  0  0  0  0  0  0  0  0
   13.9726   35.8632   14.8845 C   0  0  0  0  0  0  0  0  0  0  0  0
  1  4  2  0
  2  6  1  0
  2 10  1  0
  3  5  1  0
  3 13  2  0
  4  7  1  0
  4 10  1  0
  5 12  2  0
  6  8  2  0
  6 12  1  0
  7 14  1  0
  8  9  1  0
  8 13  1  0
  9 10  1  0
  9 14  1  0
 11 14  2  0
M  END
>  <ID>  (1) 
conformer_0

$$$$
