
     RDKit          3D

 11 11  0  0  0  0  0  0  0  0999 V2000
   13.7166   35.2614   11.9729 N   0  0  0  0  0  0  0  0  0  0  0  0
   15.4333   35.7959   13.3983 O   0  0  0  0  0  0  0  0  0  0  0  0
   12.1821   32.8537   15.2812 C   0  0  0  0  0  0  0  0  0  0  0  0
   13.2667   35.3975   15.4694 C   0  0  0  0  0  0  0  0  0  0  0  0
   10.8794   33.1870   17.3916 C   0  0  0  0  0  0  0  0  0  0  0  0
   14.3462   35.2220   13.2094 C   0  0  0  0  0  0  0  0  0  0  0  0
   13.0228   33.3485   14.2759 C   0  0  0  0  0  0  0  0  0  0  0  0
   12.4106   34.9112   16.4563 C   0  0  0  0  0  0  0  0  0  0  0  0
   13.5519   34.6464   14.3258 C   0  0  0  0  0  0  0  0  0  0  0  0
   10.0170   32.2428   17.1210 N   0  0  0  0  0  0  0  0  0  0  0  0
   11.8185   33.6385   16.3647 C   0  0  0  0  0  0  0  0  0  0  0  0
  1  6  1  0
  2  6  2  0
  3  7  1  0
  3 11  2  0
  4  8  1  0
  4  9  2  0
  5 10  2  0
  5 11  1  0
  6  9  1  0
  7  9  1  0
  8 11  1  0
M  END
>  <ID>  (1) 
conformer_0

$$$$
