
     RDKit          3D

 16 16  0  0  0  0  0  0  0  0999 V2000
   17.7393   34.6240   12.1212 C   0  0  0  0  0  0  0  0  0  0  0  0
   10.1031   32.0117   16.7446 N   0  0  0  0  0  0  0  0  0  0  0  0
   15.8103   34.6669   10.7237 C   0  0  0  0  0  0  0  0  0  0  0  0
   10.3619   33.3250   16.9387 C   0  0  0  0  0  0  0  0  0  0  0  0
   11.8229   35.2634   16.2927 C   0  0  0  0  0  0  0  0  0  0  0  0
   15.7371   33.9098   14.2168 C   0  0  0  0  0  0  0  0  0  0  0  0
   12.8331   35.9443   15.6802 C   0  0  0  0  0  0  0  0  0  0  0  0
   11.5387   33.8780   16.2862 C   0  0  0  0  0  0  0  0  0  0  0  0
   13.9230   35.5575   14.9668 C   0  0  0  0  0  0  0  0  0  0  0  0
   15.5940   33.2100   12.8189 C   0  0  0  0  0  0  0  0  0  0  0  0
   14.3097   34.2293   14.7020 C   0  0  0  0  0  0  0  0  0  0  0  0
   13.5157   33.1513   14.9648 C   0  0  0  0  0  0  0  0  0  0  0  0
   16.3543   35.3423   12.0001 C   0  0  0  0  0  0  0  0  0  0  0  0
   12.4110   33.0030   15.6255 C   0  0  0  0  0  0  0  0  0  0  0  0
   15.1558   34.4098   11.9713 N   0  0  0  0  0  0  0  0  0  0  0  0
    9.5468   33.9998   17.5872 O   0  0  0  0  0  0  0  0  0  0  0  0
  1 13  1  0
  2  4  1  0
  3 13  1  0
  3 15  1  0
  4  8  1  0
  4 16  2  0
  5  7  1  0
  5  8  2  0
  6 10  1  0
  6 11  1  0
  7  9  2  0
  8 14  1  0
  9 11  1  0
 10 15  1  0
 11 12  1  0
 12 14  2  0
M  END
>  <ID>  (1) 
conformer_0

$$$$
