
     RDKit          3D

 15 17  0  0  0  0  0  0  0  0999 V2000
   12.1675   33.7541   15.6633 C   0  0  0  0  0  0  0  0  0  0  0  0
   13.1326   33.5067   14.6395 C   0  0  0  0  0  0  0  0  0  0  0  0
   12.0672   31.5623   15.2156 C   0  0  0  0  0  0  0  0  0  0  0  0
   15.7984   35.5732   13.1941 C   0  0  0  0  0  0  0  0  0  0  0  0
   11.7865   34.8369   16.3665 C   0  0  0  0  0  0  0  0  0  0  0  0
   10.7433   34.7757   17.1710 N   0  0  0  0  0  0  0  0  0  0  0  0
   11.7472   30.3448   15.3482 O   0  0  0  0  0  0  0  0  0  0  0  0
   10.3663   32.5728   16.7829 C   0  0  0  0  0  0  0  0  0  0  0  0
   13.0478   32.1273   14.4012 C   0  0  0  0  0  0  0  0  0  0  0  0
   13.7474   34.7275   12.4253 C   0  0  0  0  0  0  0  0  0  0  0  0
   10.0166   33.7112   17.3502 N   0  0  0  0  0  0  0  0  0  0  0  0
   15.0439   35.0124   14.3193 C   0  0  0  0  0  0  0  0  0  0  0  0
   14.8511   35.5827   12.1103 N   0  0  0  0  0  0  0  0  0  0  0  0
   11.4569   32.5744   15.9758 C   0  0  0  0  0  0  0  0  0  0  0  0
   13.8979   34.3827   13.8058 C   0  0  0  0  0  0  0  0  0  0  0  0
  1  2  1  0
  1  5  2  0
  1 14  1  0
  2  9  1  0
  2 15  1  0
  3  7  2  0
  3  9  1  0
  3 14  1  0
  4 12  1  0
  4 13  1  0
  5  6  1  0
  6 11  2  0
  8 11  1  0
  8 14  2  0
 10 13  1  0
 10 15  1  0
 12 15  1  0
M  END
>  <ID>  (1) 
conformer_0

$$$$
