
     RDKit          3D

 19 21  0  0  0  0  0  0  0  0999 V2000
   12.7144   32.6532   14.8123 C   0  0  0  0  0  0  0  0  0  0  0  0
   12.7350   36.4567   17.6885 O   0  0  0  0  0  0  0  0  0  0  0  0
   11.6694   36.1177   17.1064 C   0  0  0  0  0  0  0  0  0  0  0  0
   11.2361   31.1097   15.6662 N   0  0  0  0  0  0  0  0  0  0  0  0
   10.9224   32.3912   16.1821 C   0  0  0  0  0  0  0  0  0  0  0  0
   15.8457   36.1868   13.6939 O   0  0  0  0  0  0  0  0  0  0  0  0
   14.6600   35.1689   11.8334 C   0  0  0  0  0  0  0  0  0  0  0  0
   13.9754   34.5991   14.1985 C   0  0  0  0  0  0  0  0  0  0  0  0
   11.8803   33.3739   15.7326 C   0  0  0  0  0  0  0  0  0  0  0  0
   10.1923   34.1498   17.2312 N   0  0  0  0  0  0  0  0  0  0  0  0
   13.6595   33.2433   14.0514 C   0  0  0  0  0  0  0  0  0  0  0  0
   15.0643   35.1043   13.2776 C   0  0  0  0  0  0  0  0  0  0  0  0
   12.2225   34.7140   15.8980 C   0  0  0  0  0  0  0  0  0  0  0  0
   11.2941   34.7236   16.7152 C   0  0  0  0  0  0  0  0  0  0  0  0
   17.1226   36.3339   13.0677 C   0  0  0  0  0  0  0  0  0  0  0  0
   13.2460   35.3152   15.1870 C   0  0  0  0  0  0  0  0  0  0  0  0
    9.9482   32.8118   16.9735 N   0  0  0  0  0  0  0  0  0  0  0  0
   10.7600   36.9564   16.9608 O   0  0  0  0  0  0  0  0  0  0  0  0
   12.3876   31.2701   14.7996 C   0  0  0  0  0  0  0  0  0  0  0  0
  1  9  1  0
  1 11  2  0
  1 19  1  0
  2  3  2  0
  3 14  1  0
  3 18  1  0
  4  5  1  0
  4 19  1  0
  5  9  2  0
  5 17  1  0
  6 12  1  0
  6 15  1  0
  7 12  1  0
  8 11  1  0
  8 12  1  0
  8 16  1  0
  9 13  1  0
 10 14  1  0
 10 17  1  0
 13 14  1  0
 13 16  2  0
M  END
>  <ID>  (1) 
conformer_0

$$$$
