
     RDKit          3D

 17 19  0  0  0  0  0  0  0  0999 V2000
   13.6373   35.6381   11.4818 C   0  0  0  0  0  0  0  0  0  0  0  0
   13.3181   35.6050   14.3159 C   0  0  0  0  0  0  0  0  0  0  0  0
   11.1224   33.6084   16.6596 C   0  0  0  0  0  0  0  0  0  0  0  0
   11.9539   36.3409   16.2856 C   0  0  0  0  0  0  0  0  0  0  0  0
   13.8987   33.2510   14.3477 C   0  0  0  0  0  0  0  0  0  0  0  0
   16.3203   32.9120   14.0142 C   0  0  0  0  0  0  0  0  0  0  0  0
   14.9178   32.2901   13.9368 C   0  0  0  0  0  0  0  0  0  0  0  0
   12.4439   35.3229   15.4388 C   0  0  0  0  0  0  0  0  0  0  0  0
   13.4365   36.7859   13.9620 O   0  0  0  0  0  0  0  0  0  0  0  0
   11.0813   32.2193   16.5653 C   0  0  0  0  0  0  0  0  0  0  0  0
   14.0343   34.5537   13.7424 N   0  0  0  0  0  0  0  0  0  0  0  0
   10.8329   35.9694   17.0484 C   0  0  0  0  0  0  0  0  0  0  0  0
   12.1317   34.0100   15.7903 C   0  0  0  0  0  0  0  0  0  0  0  0
   12.7579   32.8823   15.2072 C   0  0  0  0  0  0  0  0  0  0  0  0
   14.4552   34.5798   12.2829 C   0  0  0  0  0  0  0  0  0  0  0  0
   10.3824   34.6577   17.1497 C   0  0  0  0  0  0  0  0  0  0  0  0
   12.0508   31.8133   15.6768 N   0  0  0  0  0  0  0  0  0  0  0  0
  1 15  1  0
  2  8  1  0
  2  9  2  0
  2 11  1  0
  3 10  1  0
  3 13  1  0
  3 16  1  0
  4  8  1  0
  4 12  1  0
  5  7  1  0
  5 11  1  0
  5 14  1  0
  6  7  1  0
  8 13  1  0
 10 17  1  0
 11 15  1  0
 12 16  2  0
 13 14  2  0
 14 17  1  0
M  END
>  <ID>  (1) 
conformer_0

$$$$
