
     RDKit          3D

 13 14  0  0  0  0  0  0  0  0999 V2000
   12.7682   32.2235   14.8181 C   0  0  0  0  0  0  0  0  0  0  0  0
   13.5721   35.6178   13.7115 C   0  0  0  0  0  0  0  0  0  0  0  0
   14.4273   35.7475   12.7288 N   0  0  0  0  0  0  0  0  0  0  0  0
   11.9348   34.1734   15.9090 C   0  0  0  0  0  0  0  0  0  0  0  0
   10.9829   33.4119   16.5549 C   0  0  0  0  0  0  0  0  0  0  0  0
   15.2571   34.6047   12.6816 N   0  0  0  0  0  0  0  0  0  0  0  0
   12.8677   36.5608   14.1285 O   0  0  0  0  0  0  0  0  0  0  0  0
   11.8365   31.4598   15.4365 C   0  0  0  0  0  0  0  0  0  0  0  0
   14.8280   33.7981   13.5780 C   0  0  0  0  0  0  0  0  0  0  0  0
   10.9388   32.0636   16.2976 C   0  0  0  0  0  0  0  0  0  0  0  0
   13.7156   34.3315   14.1906 N   0  0  0  0  0  0  0  0  0  0  0  0
   10.1089   33.9773   17.3844 O   0  0  0  0  0  0  0  0  0  0  0  0
   12.8017   33.5961   14.9908 C   0  0  0  0  0  0  0  0  0  0  0  0
  1  8  2  0
  1 13  1  0
  2  3  1  0
  2  7  2  0
  2 11  1  0
  3  6  1  0
  4  5  1  0
  4 13  2  0
  5 10  2  0
  5 12  1  0
  6  9  1  0
  8 10  1  0
  9 11  1  0
 11 13  1  0
M  END
>  <ID>  (1) 
conformer_0

$$$$
