
     RDKit          3D

 10 10  0  0  0  0  0  0  0  0999 V2000
   14.5027   34.3620   14.1123 C   0  0  0  0  0  0  0  0  0  0  0  0
   12.0670   35.6574   16.6720 C   0  0  0  0  0  0  0  0  0  0  0  0
   12.4879   33.3023   15.3026 C   0  0  0  0  0  0  0  0  0  0  0  0
   15.2852   33.3632   14.0642 O   0  0  0  0  0  0  0  0  0  0  0  0
   11.2326   34.5924   16.8718 C   0  0  0  0  0  0  0  0  0  0  0  0
   14.6771   35.3833   13.3241 O   0  0  0  0  0  0  0  0  0  0  0  0
   13.3616   34.4020   15.0599 C   0  0  0  0  0  0  0  0  0  0  0  0
   13.1161   35.6060   15.7717 O   0  0  0  0  0  0  0  0  0  0  0  0
   10.5414   32.3749   16.4063 O   0  0  0  0  0  0  0  0  0  0  0  0
   11.4112   33.4054   16.1952 C   0  0  0  0  0  0  0  0  0  0  0  0
  1  4  2  0
  1  6  1  0
  1  7  1  0
  2  5  1  0
  2  8  1  0
  3  7  2  0
  3 10  1  0
  5 10  2  0
  7  8  1  0
  9 10  1  0
M  END
>  <ID>  (1) 
conformer_0

$$$$
