
     RDKit          3D

 11 11  0  0  0  0  0  0  0  0999 V2000
   12.1844   32.3029   15.1315 C   0  0  0  0  0  0  0  0  0  0  0  0
   13.1844   35.3857   12.4041 C   0  0  0  0  0  0  0  0  0  0  0  0
   11.0089   34.1554   16.8256 C   0  0  0  0  0  0  0  0  0  0  0  0
   10.4826   32.8804   16.7311 C   0  0  0  0  0  0  0  0  0  0  0  0
   12.6962   33.5933   15.1976 C   0  0  0  0  0  0  0  0  0  0  0  0
   14.1338   36.3721   14.6828 O   0  0  0  0  0  0  0  0  0  0  0  0
   14.5457   32.8207   13.5057 C   0  0  0  0  0  0  0  0  0  0  0  0
   11.0752   31.9663   15.8771 C   0  0  0  0  0  0  0  0  0  0  0  0
   13.9077   33.9590   14.3633 C   0  0  0  0  0  0  0  0  0  0  0  0
   13.8713   35.3446   13.7460 C   0  0  0  0  0  0  0  0  0  0  0  0
   12.1045   34.5054   16.0647 C   0  0  0  0  0  0  0  0  0  0  0  0
  1  5  1  0
  1  8  2  0
  2 10  1  0
  3  4  1  0
  3 11  2  0
  4  8  1  0
  5  9  1  0
  5 11  1  0
  6 10  1  0
  7  9  1  0
  9 10  1  0
M  END
>  <ID>  (1) 
conformer_0

$$$$
