
     RDKit          3D

 11 11  0  0  0  0  0  0  0  0999 V2000
    9.8625   34.3141   17.4122 O   0  0  0  0  0  0  0  0  0  0  0  0
   10.9034   34.0363   16.6294 C   0  0  0  0  0  0  0  0  0  0  0  0
   12.8480   34.6572   15.3579 C   0  0  0  0  0  0  0  0  0  0  0  0
   13.7761   35.7353   14.7402 C   0  0  0  0  0  0  0  0  0  0  0  0
   14.8779   35.2802   13.8576 C   0  0  0  0  0  0  0  0  0  0  0  0
   11.7957   34.9986   16.2151 C   0  0  0  0  0  0  0  0  0  0  0  0
   12.1655   32.3546   15.4591 C   0  0  0  0  0  0  0  0  0  0  0  0
   11.0572   32.7021   16.2206 C   0  0  0  0  0  0  0  0  0  0  0  0
   13.0370   33.3314   15.0324 C   0  0  0  0  0  0  0  0  0  0  0  0
   10.1041   31.8173   16.5564 O   0  0  0  0  0  0  0  0  0  0  0  0
   14.7432   35.6304   12.4597 N   0  0  0  0  0  0  0  0  0  0  0  0
  1  2  1  0
  2  6  2  0
  2  8  1  0
  3  4  1  0
  3  6  1  0
  3  9  2  0
  4  5  1  0
  5 11  1  0
  7  8  2  0
  7  9  1  0
  8 10  1  0
M  END
>  <ID>  (1) 
conformer_0

$$$$
