
     RDKit          3D

 19 21  0  0  0  0  0  0  0  0999 V2000
   13.2435   35.6717   15.4722 C   0  0  0  0  0  0  0  0  0  0  0  0
    9.3556   34.4041   17.6071 N   0  0  0  0  0  0  0  0  0  0  0  0
   16.7256   33.9875   13.0950 C   0  0  0  0  0  0  0  0  0  0  0  0
   12.1924   35.8938   16.3014 N   0  0  0  0  0  0  0  0  0  0  0  0
   17.9397   34.5615   13.1541 O   0  0  0  0  0  0  0  0  0  0  0  0
   14.2190   34.5788   12.6257 C   0  0  0  0  0  0  0  0  0  0  0  0
   15.7043   34.7523   12.3431 C   0  0  0  0  0  0  0  0  0  0  0  0
   14.0700   33.8783   13.9457 C   0  0  0  0  0  0  0  0  0  0  0  0
   16.3085   32.9674   14.0880 C   0  0  0  0  0  0  0  0  0  0  0  0
   13.2991   34.4156   15.0012 N   0  0  0  0  0  0  0  0  0  0  0  0
   10.3315   33.9355   16.9387 C   0  0  0  0  0  0  0  0  0  0  0  0
   16.0777   35.7638   11.5981 O   0  0  0  0  0  0  0  0  0  0  0  0
   14.8754   32.8059   14.0413 O   0  0  0  0  0  0  0  0  0  0  0  0
   13.6271   33.8678   11.5541 O   0  0  0  0  0  0  0  0  0  0  0  0
   12.1199   31.4630   15.3016 O   0  0  0  0  0  0  0  0  0  0  0  0
   10.4663   32.6029   16.5490 N   0  0  0  0  0  0  0  0  0  0  0  0
   11.4955   34.7091   16.4202 C   0  0  0  0  0  0  0  0  0  0  0  0
   12.2971   33.7572   15.6209 C   0  0  0  0  0  0  0  0  0  0  0  0
   11.6933   32.4960   15.7581 C   0  0  0  0  0  0  0  0  0  0  0  0
  1  4  1  0
  1 10  1  0
  2 11  2  0
  3  5  1  0
  3  7  1  0
  3  9  1  0
  4 17  1  0
  6  7  1  0
  6  8  1  0
  6 14  1  0
  7 12  1  0
  8 10  1  0
  8 13  1  0
  9 13  1  0
 10 18  1  0
 11 16  1  0
 11 17  1  0
 15 19  2  0
 16 19  1  0
 17 18  2  0
 18 19  1  0
M  END
>  <ID>  (1) 
conformer_0

$$$$
