
     RDKit          3D

 27 31  0  0  0  0  0  0  0  0999 V2000
   13.9232   34.6489   14.2452 C   0  0  0  0  0  0  0  0  0  0  0  0
   10.6290   31.7599   16.1683 C   0  0  0  0  0  0  0  0  0  0  0  0
   15.5244   34.4965   11.1661 C   0  0  0  0  0  0  0  0  0  0  0  0
   12.2139   30.9513   14.5573 C   0  0  0  0  0  0  0  0  0  0  0  0
   14.4547   35.9612   14.1603 C   0  0  0  0  0  0  0  0  0  0  0  0
   12.8325   34.5392   15.1185 C   0  0  0  0  0  0  0  0  0  0  0  0
   10.5586   33.9257   16.8533 C   0  0  0  0  0  0  0  0  0  0  0  0
   10.1857   34.9274   17.5136 C   0  0  0  0  0  0  0  0  0  0  0  0
   15.0608   31.2490   13.8277 C   0  0  0  0  0  0  0  0  0  0  0  0
   11.9143   37.8463   16.8631 O   0  0  0  0  0  0  0  0  0  0  0  0
    9.6947   31.5084   17.0075 O   0  0  0  0  0  0  0  0  0  0  0  0
   13.5059   38.0371   14.8171 O   0  0  0  0  0  0  0  0  0  0  0  0
   11.1301   30.7644   15.3589 C   0  0  0  0  0  0  0  0  0  0  0  0
   10.7051   36.1753   17.4896 C   0  0  0  0  0  0  0  0  0  0  0  0
   12.2652   33.2689   15.2367 C   0  0  0  0  0  0  0  0  0  0  0  0
   11.1557   33.0384   16.0960 C   0  0  0  0  0  0  0  0  0  0  0  0
   12.5163   35.8186   15.7011 C   0  0  0  0  0  0  0  0  0  0  0  0
   15.7500   35.8438   13.3071 C   0  0  0  0  0  0  0  0  0  0  0  0
   14.5141   33.6743   13.4215 N   0  0  0  0  0  0  0  0  0  0  0  0
   13.9523   32.3324   13.5817 C   0  0  0  0  0  0  0  0  0  0  0  0
   16.8938   34.9001   10.5513 C   0  0  0  0  0  0  0  0  0  0  0  0
   12.7922   32.1839   14.4858 C   0  0  0  0  0  0  0  0  0  0  0  0
   11.7345   36.5676   16.6603 C   0  0  0  0  0  0  0  0  0  0  0  0
   10.4742   29.5772   15.4059 O   0  0  0  0  0  0  0  0  0  0  0  0
   13.4927   36.7563   14.9663 C   0  0  0  0  0  0  0  0  0  0  0  0
   15.7402   34.3047   12.7076 C   0  0  0  0  0  0  0  0  0  0  0  0
   17.6972   35.8269   11.3694 N   0  0  0  0  0  0  0  0  0  0  0  0
  1  5  1  0
  1  6  2  0
  1 19  1  0
  2 11  2  0
  2 13  1  0
  2 16  1  0
  3 21  1  0
  3 26  1  0
  4 13  2  0
  4 22  1  0
  5 18  1  0
  5 25  1  0
  6 15  1  0
  6 17  1  0
  7  8  2  0
  7 16  2  0
  8 14  1  0
  9 20  1  0
 10 23  1  0
 12 25  1  0
 13 24  1  0
 14 23  2  0
 15 16  1  0
 15 22  2  0
 17 23  1  0
 17 25  1  0
 18 26  1  0
 19 20  1  0
 19 26  1  0
 20 22  1  0
 21 27  1  0
M  END
>  <ID>  (1) 
conformer_0

$$$$
