
     RDKit          3D

 10 10  0  0  0  0  0  0  0  0999 V2000
   13.5206   36.8532   14.2241 N   0  0  0  0  0  0  0  0  0  0  0  0
   11.8500   32.5083   16.0407 C   0  0  0  0  0  0  0  0  0  0  0  0
   10.9900   33.2077   16.8980 C   0  0  0  0  0  0  0  0  0  0  0  0
   12.6784   34.5849   15.0731 C   0  0  0  0  0  0  0  0  0  0  0  0
   11.0283   34.5984   16.8549 C   0  0  0  0  0  0  0  0  0  0  0  0
   15.0589   34.8892   14.0761 N   0  0  0  0  0  0  0  0  0  0  0  0
   12.6546   33.1874   15.1611 C   0  0  0  0  0  0  0  0  0  0  0  0
   11.8719   35.2769   15.9774 C   0  0  0  0  0  0  0  0  0  0  0  0
   13.6433   35.3961   13.9072 S   0  0  0  0  0  4  0  0  0  0  0  0
   13.0790   35.0710   12.5907 O   0  0  0  0  0  0  0  0  0  0  0  0
  1  9  1  0
  2  3  2  0
  2  7  1  0
  3  5  1  0
  4  7  2  0
  4  8  1  0
  4  9  1  0
  5  8  2  0
  6  9  1  0
  9 10  1  0
M  END
>  <ID>  (1) 
conformer_0

$$$$
