
     RDKit          3D

 19 20  0  0  0  0  0  0  0  0999 V2000
   11.8803   31.3944   15.0973 C   0  0  0  0  0  0  0  0  0  0  0  0
   13.1719   35.9708   15.8515 N   0  0  0  0  0  0  0  0  0  0  0  0
   11.4835   33.9430   16.1756 C   0  0  0  0  0  0  0  0  0  0  0  0
   12.7479   32.4387   14.8085 C   0  0  0  0  0  0  0  0  0  0  0  0
   12.5779   33.7173   15.3169 C   0  0  0  0  0  0  0  0  0  0  0  0
   10.9769   34.9941   16.8614 N   0  0  0  0  0  0  0  0  0  0  0  0
   15.5019   35.5765   11.4890 N   0  0  0  0  0  0  0  0  0  0  0  0
   15.3310   34.3323   13.5537 C   0  0  0  0  0  0  0  0  0  0  0  0
   15.9849   33.0495   11.4450 C   0  0  0  0  0  0  0  0  0  0  0  0
   15.6444   34.3315   12.0674 C   0  0  0  0  0  0  0  0  0  0  0  0
    9.5817   33.3360   17.2451 N   0  0  0  0  0  0  0  0  0  0  0  0
    9.8702   34.6034   17.4503 C   0  0  0  0  0  0  0  0  0  0  0  0
   10.5989   32.8760   16.4389 C   0  0  0  0  0  0  0  0  0  0  0  0
   10.7612   31.6050   15.9327 C   0  0  0  0  0  0  0  0  0  0  0  0
   13.4340   34.8705   15.0484 C   0  0  0  0  0  0  0  0  0  0  0  0
   16.1274   33.4077   14.2589 O   0  0  0  0  0  0  0  0  0  0  0  0
   13.4269   37.2354   15.4276 C   0  0  0  0  0  0  0  0  0  0  0  0
   14.1152   34.9415   13.8613 O   0  0  0  0  0  0  0  0  0  0  0  0
   14.6735   37.4692   14.8246 O   0  0  0  0  0  0  0  0  0  0  0  0
  1  4  2  0
  1 14  1  0
  2 15  1  0
  2 17  1  0
  3  5  2  0
  3  6  1  0
  3 13  1  0
  4  5  1  0
  5 15  1  0
  6 12  1  0
  7 10  1  0
  8 10  1  0
  8 16  2  0
  8 18  1  0
  9 10  1  0
 11 12  1  0
 11 13  1  0
 13 14  2  0
 15 18  1  0
 17 19  1  0
M  END
>  <ID>  (1) 
conformer_0

$$$$
