
     RDKit          3D

 12 13  0  0  0  0  0  0  0  0999 V2000
   12.8956   33.4567   13.9251 N   0  0  0  0  0  0  0  0  0  0  0  0
   13.6188   34.4834   13.4206 C   0  0  0  0  0  0  0  0  0  0  0  0
   14.9509   35.2166   11.5269 C   0  0  0  0  0  0  0  0  0  0  0  0
   10.8837   33.2614   16.9120 C   0  0  0  0  0  0  0  0  0  0  0  0
   13.8584   35.4183   14.4187 C   0  0  0  0  0  0  0  0  0  0  0  0
   10.7247   34.6993   17.0281 C   0  0  0  0  0  0  0  0  0  0  0  0
   13.7272   34.7553   12.1089 N   0  0  0  0  0  0  0  0  0  0  0  0
   11.4210   35.9297   17.0195 C   0  0  0  0  0  0  0  0  0  0  0  0
   12.4787   33.7664   15.2402 C   0  0  0  0  0  3  0  0  0  0  0  0
   11.7992   32.8381   15.9749 N   0  0  0  0  0  0  0  0  0  0  0  0
   12.5298   36.0905   16.3230 N   0  0  0  0  0  0  0  0  0  0  0  0
   12.9827   35.0837   15.5115 C   0  0  0  0  0  0  0  0  0  0  0  0
  1  2  2  0
  1  9  1  0
  2  5  1  0
  2  7  1  0
  3  7  1  0
  4  6  1  0
  4 10  2  0
  5 12  1  0
  6  8  1  0
  8 11  2  0
  9 10  1  0
  9 12  1  0
 11 12  1  0
M  END
>  <ID>  (1) 
conformer_0

$$$$
