
     RDKit          3D

 15 16  0  0  0  0  0  0  0  0999 V2000
   12.6809   35.9359   15.5480 C   0  0  0  0  0  0  0  0  0  0  0  0
   14.1590   35.2335   12.1096 C   0  0  0  0  0  0  0  0  0  0  0  0
   15.1617   34.3196   11.8752 C   0  0  0  0  0  0  0  0  0  0  0  0
    9.8362   33.1477   17.0645 N   0  0  0  0  0  0  0  0  0  0  0  0
   13.4915   35.7176   13.1833 C   0  0  0  0  0  0  0  0  0  0  0  0
   11.0033   32.6765   16.4750 C   0  0  0  0  0  0  0  0  0  0  0  0
   14.4505   34.3489   14.8610 C   0  0  0  0  0  0  0  0  0  0  0  0
    9.6661   34.4816   17.2234 C   0  0  0  0  0  0  0  0  0  0  0  0
   15.7474   33.5030   12.8786 C   0  0  0  0  0  0  0  0  0  0  0  0
   13.5589   35.3455   14.5151 C   0  0  0  0  0  0  0  0  0  0  0  0
   10.6200   35.3945   16.8196 C   0  0  0  0  0  0  0  0  0  0  0  0
   11.9435   33.5537   16.0543 C   0  0  0  0  0  0  0  0  0  0  0  0
   11.7549   34.9483   16.1674 C   0  0  0  0  0  0  0  0  0  0  0  0
   12.7594   37.1620   15.8534 O   0  0  0  0  0  0  0  0  0  0  0  0
   15.3453   33.6047   14.2082 C   0  0  0  0  0  0  0  0  0  0  0  0
  1 10  1  0
  1 13  1  0
  1 14  2  0
  2  3  1  0
  2  5  2  0
  3  9  2  0
  4  6  2  0
  4  8  1  0
  5 10  1  0
  6 12  1  0
  7 10  1  0
  7 15  2  0
  8 11  2  0
  9 15  1  0
 11 13  1  0
 12 13  2  0
M  END
>  <ID>  (1) 
conformer_0

$$$$
