
     RDKit          3D

 20 22  0  0  0  0  0  0  0  0999 V2000
   17.5484   34.7648   12.5599 C   0  0  0  0  0  0  0  0  0  0  0  0
   10.9301   31.4502   15.9425 C   0  0  0  0  0  0  0  0  0  0  0  0
   10.2260   32.3010   16.8318 C   0  0  0  0  0  0  0  0  0  0  0  0
   15.6517   32.9342   12.5436 N   0  0  0  0  0  0  0  0  0  0  0  0
   15.2123   35.3399   11.8138 C   0  0  0  0  0  0  0  0  0  0  0  0
   12.5739   35.0456   15.7340 N   0  0  0  0  0  0  0  0  0  0  0  0
   12.3557   33.2655   15.3391 C   0  0  0  0  0  0  0  0  0  0  0  0
   14.6350   32.8670   13.5300 C   0  0  0  0  0  0  0  0  0  0  0  0
   12.7662   37.3446   15.6042 O   0  0  0  0  0  0  0  0  0  0  0  0
   16.6757   35.1178   11.3309 C   0  0  0  0  0  0  0  0  0  0  0  0
   12.5304   36.3298   16.2903 C   0  0  0  0  0  0  0  0  0  0  0  0
   13.1986   34.2998   14.8868 C   0  0  0  0  0  0  0  0  0  0  0  0
   11.9743   31.9542   15.2173 C   0  0  0  0  0  0  0  0  0  0  0  0
   11.7274   34.0858   16.1765 C   0  0  0  0  0  0  0  0  0  0  0  0
   14.1465   34.2082   13.9755 C   0  0  0  0  0  0  0  0  0  0  0  0
   12.1820   36.4682   17.5079 O   0  0  0  0  0  0  0  0  0  0  0  0
   10.6838   33.6377   16.9271 C   0  0  0  0  0  0  0  0  0  0  0  0
   17.0742   33.3755   13.0233 C   0  0  0  0  0  0  0  0  0  0  0  0
   14.9163   35.2449   13.3106 C   0  0  0  0  0  0  0  0  0  0  0  0
   14.9704   31.8742   14.6553 C   0  0  0  0  0  0  0  0  0  0  0  0
  1 10  1  0
  1 18  1  0
  2  3  2  0
  2 13  1  0
  3 17  1  0
  4  8  1  0
  4 18  1  0
  5 10  1  0
  5 19  1  0
  6 11  1  0
  6 12  1  0
  6 14  1  0
  7 12  1  0
  7 13  2  0
  7 14  1  0
  8 15  1  0
  8 20  1  0
  9 11  2  0
 11 16  1  0
 12 15  2  3
 14 17  2  0
 15 19  1  0
M  END
>  <ID>  (1) 
conformer_0

$$$$
