
     RDKit          3D

 16 18  0  0  0  0  0  0  0  0999 V2000
   15.1747   35.2532   12.8072 C   0  0  0  0  0  0  0  0  0  0  0  0
   13.5729   35.2452   14.5422 C   0  0  0  0  0  0  0  0  0  0  0  0
    9.7717   35.3960   17.3023 C   0  0  0  0  0  0  0  0  0  0  0  0
   11.7100   33.8345   16.0675 C   0  0  0  0  0  0  0  0  0  0  0  0
   15.5078   33.9165   13.1098 C   0  0  0  0  0  0  0  0  0  0  0  0
   15.2291   31.8300   14.4383 C   0  0  0  0  0  0  0  0  0  0  0  0
   10.2541   31.9592   16.3882 O   0  0  0  0  0  0  0  0  0  0  0  0
   10.4942   33.2399   16.5835 C   0  0  0  0  0  0  0  0  0  0  0  0
   11.7829   35.2706   16.0535 C   0  0  0  0  0  0  0  0  0  0  0  0
   13.7639   33.8572   14.7600 C   0  0  0  0  0  0  0  0  0  0  0  0
   10.8439   36.0278   16.7686 C   0  0  0  0  0  0  0  0  0  0  0  0
    9.5525   34.0421   17.1981 N   0  0  0  0  0  0  0  0  0  0  0  0
   14.2201   35.9180   13.5332 C   0  0  0  0  0  0  0  0  0  0  0  0
   12.7394   35.9769   15.3400 O   0  0  0  0  0  0  0  0  0  0  0  0
   14.8427   33.2307   14.0851 C   0  0  0  0  0  0  0  0  0  0  0  0
   12.8355   33.0737   15.5884 C   0  0  0  0  0  0  0  0  0  0  0  0
  1  5  1  0
  1 13  1  0
  2 10  1  0
  2 13  2  0
  2 14  1  0
  3 11  2  0
  3 12  1  0
  4  8  1  0
  4  9  2  0
  4 16  1  0
  5 15  2  0
  6 15  1  0
  7  8  2  0
  8 12  1  0
  9 11  1  0
  9 14  1  0
 10 15  1  0
 10 16  1  0
M  END
>  <ID>  (1) 
conformer_0

$$$$
