
     RDKit          3D

  9  9  0  0  0  0  0  0  0  0999 V2000
   11.0945   36.5087   17.2343 C   0  0  0  0  0  0  0  0  0  0  0  0
   12.5497   33.6873   15.6415 C   0  0  0  0  0  0  0  0  0  0  0  0
   14.7459   35.0912   13.1711 C   0  0  0  0  0  0  0  0  0  0  0  0
   12.0239   35.4914   16.7183 C   0  0  0  0  0  0  0  0  0  0  0  0
   14.5227   34.6313   14.4362 C   0  0  0  0  0  0  0  0  0  0  0  0
   13.4248   34.7337   15.2636 C   0  0  0  0  0  0  0  0  0  0  0  0
   13.6333   35.5901   12.4095 N   0  0  0  0  0  0  0  0  0  0  0  0
   11.6293   34.1978   16.5536 C   0  0  0  0  0  0  0  0  0  0  0  0
   13.1470   35.7809   16.0580 N   0  0  0  0  0  0  0  0  0  0  0  0
  1  4  1  0
  2  6  1  0
  2  8  1  0
  3  5  2  3
  3  7  1  0
  4  8  1  0
  4  9  1  0
  5  6  1  0
  6  9  1  0
M  END
>  <ID>  (1) 
conformer_0

$$$$
