
     RDKit          3D

 27 32  0  0  0  0  0  0  0  0999 V2000
   10.6887   32.8034   16.6355 N   0  0  0  0  0  0  0  0  0  0  0  0
   10.0769   33.8734   17.2119 C   0  0  0  0  0  0  0  0  0  0  0  0
   16.0970   35.1938   10.3789 C   0  0  0  0  0  0  0  0  0  0  0  0
   12.3328   36.6033   16.0393 C   0  0  0  0  0  0  0  0  0  0  0  0
   16.7180   30.1025   12.0158 O   0  0  0  0  0  0  0  0  0  0  0  0
   11.8654   33.1090   15.9767 C   0  0  0  0  0  0  0  0  0  0  0  0
   18.0214   32.3577   12.5640 O   0  0  0  0  0  0  0  0  0  0  0  0
   16.7409   32.3120   12.7792 C   0  0  0  0  0  0  0  0  0  0  0  0
   14.6186   35.3011   12.3754 C   0  0  0  0  0  0  0  0  0  0  0  0
   11.5437   30.9323   15.8428 C   0  0  0  0  0  0  0  0  0  0  0  0
   13.3831   34.8651   15.1894 C   0  0  0  0  0  0  0  0  0  0  0  0
   15.8849   33.1784   11.8649 C   0  0  0  0  0  0  0  0  0  0  0  0
   17.3894   31.1032   12.5960 C   0  0  0  0  0  0  0  0  0  0  0  0
   10.4426   31.4924   16.5060 C   0  0  0  0  0  0  0  0  0  0  0  0
   15.1661   31.3084   14.2513 O   0  0  0  0  0  0  0  0  0  0  0  0
   15.7396   34.4090   12.8909 C   0  0  0  0  0  0  0  0  0  0  0  0
   13.3351   36.2138   15.1632 C   0  0  0  0  0  0  0  0  0  0  0  0
   12.3657   31.9316   15.5132 C   0  0  0  0  0  0  0  0  0  0  0  0
   11.6529   35.4720   16.4686 C   0  0  0  0  0  0  0  0  0  0  0  0
   15.5868   33.8289   14.2654 C   0  0  0  0  0  0  0  0  0  0  0  0
   10.5924   35.1144   17.1985 N   0  0  0  0  0  0  0  0  0  0  0  0
   12.3011   34.4199   15.8945 C   0  0  0  0  0  0  0  0  0  0  0  0
   16.9326   34.0911   11.1126 C   0  0  0  0  0  0  0  0  0  0  0  0
   14.6041   35.1463   10.8673 C   0  0  0  0  0  0  0  0  0  0  0  0
   16.1222   32.4134   14.1596 C   0  0  0  0  0  0  0  0  0  0  0  0
   14.1545   33.8899   14.5705 C   0  0  0  0  0  0  0  0  0  0  0  0
   17.1084   34.8258   12.5498 C   0  0  0  0  0  0  0  0  0  0  0  0
  1  2  1  0
  1  6  1  0
  1 14  1  0
  2 21  1  0
  3 23  1  0
  3 24  1  0
  4 17  1  0
  4 19  1  0
  5 13  1  0
  6 18  1  0
  6 22  1  0
  7  8  1  0
  8 12  1  0
  8 13  1  0
  8 25  1  0
  9 16  1  0
  9 24  1  0
 10 14  1  0
 10 18  1  0
 11 17  1  0
 11 22  2  0
 11 26  1  0
 12 16  1  0
 12 23  1  0
 15 25  1  0
 16 20  1  0
 16 27  1  0
 19 21  2  0
 19 22  1  0
 20 25  1  0
 20 26  1  0
 23 27  1  0
M  END
>  <ID>  (1) 
conformer_0

$$$$
