
     RDKit          3D

 10 11  0  0  0  0  0  0  0  0999 V2000
   13.6858   34.0608   12.5818 C   0  0  0  0  0  0  0  0  0  0  0  0
   12.6432   35.6488   16.8015 N   0  0  0  0  0  0  0  0  0  0  0  0
   13.2829   37.4233   15.3080 N   0  0  0  0  0  0  0  0  0  0  0  0
   13.0716   36.1987   15.6303 C   0  0  0  0  0  0  0  0  0  0  0  0
   13.2247   35.1588   14.6687 C   0  0  0  0  0  0  0  0  0  0  0  0
   12.4978   34.1676   16.6229 N   0  0  0  0  0  0  0  0  0  0  0  0
   12.8616   33.9672   15.2723 C   0  0  0  0  0  0  0  0  0  0  0  0
   12.9222   32.7822   14.4928 C   0  0  0  0  0  0  0  0  0  0  0  0
   13.6305   35.2075   13.3548 C   0  0  0  0  0  0  0  0  0  0  0  0
   13.3445   32.8464   13.1564 C   0  0  0  0  0  0  0  0  0  0  0  0
  1  9  2  0
  1 10  1  0
  2  4  1  0
  2  6  1  0
  3  4  2  0
  4  5  1  0
  5  7  2  0
  5  9  1  0
  6  7  1  0
  7  8  1  0
  8 10  2  0
M  END
>  <ID>  (1) 
conformer_0

$$$$
