
     RDKit          3D

 12 12  0  0  0  0  0  0  0  0999 V2000
   10.0671   32.8534   16.9665 C   0  0  0  0  0  0  0  0  0  0  0  0
   14.8207   36.1004   13.7621 N   0  0  0  0  0  0  0  0  0  0  0  0
   13.9833   34.9896   13.6115 C   0  0  0  0  0  0  0  0  0  0  0  0
    9.9574   34.0792   17.3391 N   0  0  0  0  0  0  0  0  0  0  0  0
   12.1256   33.3984   15.9712 C   0  0  0  0  0  0  0  0  0  0  0  0
   11.1534   32.4309   16.2648 C   0  0  0  0  0  0  0  0  0  0  0  0
   13.1089   33.1510   15.0572 N   0  0  0  0  0  0  0  0  0  0  0  0
   12.0080   34.6268   16.4621 N   0  0  0  0  0  0  0  0  0  0  0  0
   13.3858   35.0001   12.2743 C   0  0  0  0  0  0  0  0  0  0  0  0
   14.0265   34.0706   14.7270 C   0  0  0  0  0  0  0  0  0  0  0  0
   14.1031   35.8251   11.3302 N   0  0  0  0  0  0  0  0  0  0  0  0
   10.9122   34.9923   17.0605 C   0  0  0  0  0  0  0  0  0  0  0  0
  1  4  2  0
  1  6  1  0
  2  3  1  0
  3  9  1  0
  3 10  1  0
  4 12  1  0
  5  6  1  0
  5  7  2  3
  5  8  1  0
  7 10  1  0
  8 12  2  0
  9 11  1  0
M  END
>  <ID>  (1) 
conformer_0

$$$$
