
     RDKit          3D

 11 11  0  0  0  0  0  0  0  0999 V2000
   10.7107   33.7352   16.8492 C   0  0  0  0  0  0  0  0  0  0  0  0
   12.0062   35.4037   16.2146 C   0  0  0  0  0  0  0  0  0  0  0  0
   13.4331   35.6262   11.6072 N   0  0  0  0  0  0  0  0  0  0  0  0
   13.0225   36.4333   13.6534 N   0  0  0  0  0  0  0  0  0  0  0  0
   11.7352   33.2546   16.0847 N   0  0  0  0  0  0  0  0  0  0  0  0
   10.8801   35.0633   16.9389 N   0  0  0  0  0  0  0  0  0  0  0  0
   14.0264   34.2301   13.4954 C   0  0  0  0  0  0  0  0  0  0  0  0
   12.5480   34.2811   15.7019 C   0  0  0  0  0  0  0  0  0  0  0  0
   13.8868   34.0309   15.0114 C   0  0  0  0  0  0  0  0  0  0  0  0
    9.7600   33.0573   17.3629 O   0  0  0  0  0  0  0  0  0  0  0  0
   13.3435   35.4367   12.9441 C   0  0  0  0  0  0  0  0  0  0  0  0
  1  5  1  0
  1  6  1  0
  1 10  2  0
  2  6  1  0
  2  8  1  0
  3 11  2  0
  4 11  1  0
  5  8  1  0
  7  9  1  0
  7 11  1  0
  8  9  1  0
M  END
>  <ID>  (1) 
conformer_0

$$$$
