
     RDKit          3D

 21 24  0  0  0  0  0  0  0  0999 V2000
   10.6823   31.8424   16.2680 C   0  0  0  0  0  0  0  0  0  0  0  0
    9.7692   32.5795   16.9578 N   0  0  0  0  0  0  0  0  0  0  0  0
   13.3079   34.3579   12.7237 C   0  0  0  0  0  0  0  0  0  0  0  0
   12.7886   35.9108   15.8642 C   0  0  0  0  0  0  0  0  0  0  0  0
   11.1097   36.8838   17.4691 C   0  0  0  0  0  0  0  0  0  0  0  0
   16.5137   33.9958   12.6914 C   0  0  0  0  0  0  0  0  0  0  0  0
   10.0221   33.9197   17.1707 C   0  0  0  0  0  0  0  0  0  0  0  0
   13.6970   34.5946   14.1282 C   0  0  0  0  0  0  0  0  0  0  0  0
   11.1453   34.5338   16.6799 C   0  0  0  0  0  0  0  0  0  0  0  0
   15.6079   35.2651   12.8259 C   0  0  0  0  0  0  0  0  0  0  0  0
   12.0041   33.7682   15.8977 C   0  0  0  0  0  0  0  0  0  0  0  0
   13.4841   36.9178   15.3709 N   0  0  0  0  0  0  0  0  0  0  0  0
   11.8419   32.4231   15.7429 C   0  0  0  0  0  0  0  0  0  0  0  0
   14.4161   34.9870   11.8140 C   0  0  0  0  0  0  0  0  0  0  0  0
   16.7339   36.3824   12.9665 C   0  0  0  0  0  0  0  0  0  0  0  0
   16.0036   32.7168   13.2172 C   0  0  0  0  0  0  0  0  0  0  0  0
   17.9052   34.2166   12.3869 C   0  0  0  0  0  0  0  0  0  0  0  0
   14.6214   36.6911   14.7519 N   0  0  0  0  0  0  0  0  0  0  0  0
   14.7892   35.5059   14.1129 C   0  0  0  0  0  0  0  0  0  0  0  0
   12.9942   34.6343   15.3196 C   0  0  0  0  0  0  0  0  0  0  0  0
   11.6303   35.8294   16.7323 C   0  0  0  0  0  0  0  0  0  0  0  0
  1  2  2  0
  1 13  1  0
  2  7  1  0
  3  8  1  0
  3 14  1  0
  4 12  1  0
  4 20  1  0
  4 21  2  0
  5 21  1  0
  6 10  1  0
  6 16  1  0
  6 17  1  0
  7  9  2  0
  8 19  1  0
  8 20  1  0
  9 11  1  0
  9 21  1  0
 10 14  1  0
 10 15  1  0
 10 19  1  0
 11 13  2  0
 11 20  1  0
 12 18  1  0
 18 19  1  0
M  END
>  <ID>  (1) 
conformer_0

$$$$
