
     RDKit          3D

 10 10  0  0  0  0  0  0  0  0999 V2000
   13.4518   36.2955   15.4440 C   0  0  0  0  0  0  0  0  0  0  0  0
   12.1112   35.1005   17.0804 C   0  0  0  0  0  0  0  0  0  0  0  0
   12.7908   36.2300   16.6661 C   0  0  0  0  0  0  0  0  0  0  0  0
   13.6629   34.2526   12.2862 C   0  0  0  0  0  0  0  0  0  0  0  0
   12.7072   34.0411   15.0003 C   0  0  0  0  0  0  0  0  0  0  0  0
   12.0786   33.9754   16.2463 C   0  0  0  0  0  0  0  0  0  0  0  0
   13.3999   35.1842   14.5890 C   0  0  0  0  0  0  0  0  0  0  0  0
   11.3630   32.7321   16.7816 C   0  0  0  0  0  0  0  0  0  0  0  0
   11.0478   31.7073   15.7893 N   0  0  0  0  0  0  0  0  0  0  0  0
   14.1085   35.2814   13.2493 C   0  0  0  0  0  0  0  0  0  0  0  0
  1  3  2  0
  1  7  1  0
  2  3  1  0
  2  6  2  0
  4 10  1  0
  5  6  1  0
  5  7  2  0
  6  8  1  0
  7 10  1  0
  8  9  1  0
M  END
>  <ID>  (1) 
conformer_0

$$$$
