
     RDKit          3D

 24 28  0  0  0  0  0  0  0  0999 V2000
   10.3171   30.9288   16.2831 N   0  0  0  0  0  0  0  0  0  0  0  0
   13.9679   36.9483   14.6208 O   0  0  0  0  0  0  0  0  0  0  0  0
   11.2302   30.2938   15.3949 C   0  0  0  0  0  0  0  0  0  0  0  0
   16.6447   33.9317   12.7743 C   0  0  0  0  0  0  0  0  0  0  0  0
   12.4565   33.5889   15.1251 N   0  0  0  0  0  0  0  0  0  0  0  0
   15.8791   35.1386   13.2385 C   0  0  0  0  0  0  0  0  0  0  0  0
   16.5573   33.9466   11.3229 O   0  0  0  0  0  0  0  0  0  0  0  0
   14.1955   33.7597   12.0641 C   0  0  0  0  0  0  0  0  0  0  0  0
   15.1289   33.9022   10.9058 C   0  0  0  0  0  0  0  0  0  0  0  0
   10.6431   35.6988   17.3618 C   0  0  0  0  0  0  0  0  0  0  0  0
   11.8057   37.9528   17.0629 C   0  0  0  0  0  0  0  0  0  0  0  0
   13.4998   34.6715   14.2702 N   0  0  0  0  0  0  0  0  0  0  0  0
   14.3855   34.8698   13.0260 C   0  0  0  0  0  0  0  0  0  0  0  0
   10.7263   32.2522   16.2821 C   0  0  0  0  0  0  0  0  0  0  0  0
   14.5277   32.5174   12.8593 C   0  0  0  0  0  0  0  0  0  0  0  0
   11.8620   34.4970   15.8893 C   0  0  0  0  0  0  0  0  0  0  0  0
   11.5927   36.5881   16.7808 C   0  0  0  0  0  0  0  0  0  0  0  0
   10.8119   34.4195   16.7884 C   0  0  0  0  0  0  0  0  0  0  0  0
   12.1203   31.1951   14.9399 N   0  0  0  0  0  0  0  0  0  0  0  0
   10.1606   33.2485   16.9886 N   0  0  0  0  0  0  0  0  0  0  0  0
   11.8096   32.4320   15.4455 C   0  0  0  0  0  0  0  0  0  0  0  0
   13.3441   35.8621   14.8665 C   0  0  0  0  0  0  0  0  0  0  0  0
   12.3330   35.8593   15.8672 C   0  0  0  0  0  0  0  0  0  0  0  0
   15.9598   32.7098   13.3678 C   0  0  0  0  0  0  0  0  0  0  0  0
  1  3  1  0
  1 14  1  0
  2 22  2  0
  3 19  1  0
  4  6  1  0
  4  7  1  0
  4 24  1  0
  5 16  1  0
  5 21  1  0
  6 13  1  0
  7  9  1  0
  8  9  1  0
  8 13  1  0
  8 15  1  0
 10 17  1  0
 10 18  1  0
 11 17  1  0
 12 13  1  0
 12 22  1  0
 14 20  1  0
 14 21  2  0
 15 24  1  0
 16 18  2  0
 16 23  1  0
 17 23  2  0
 18 20  1  0
 19 21  1  0
 22 23  1  0
M  END
>  <ID>  (1) 
conformer_0

$$$$
