
     RDKit          3D

 21 22  0  0  0  0  0  0  0  0999 V2000
   10.0099   33.1638   17.0022 N   0  0  0  0  0  0  0  0  0  0  0  0
   11.9771   34.2334   16.0536 C   0  0  0  0  0  0  0  0  0  0  0  0
   13.6873   35.6866   15.0297 C   0  0  0  0  0  0  0  0  0  0  0  0
   11.6342   31.8391   15.8525 N   0  0  0  0  0  0  0  0  0  0  0  0
   16.4907   32.9780   13.8399 C   0  0  0  0  0  0  0  0  0  0  0  0
   17.6852   33.0099   13.3750 O   0  0  0  0  0  0  0  0  0  0  0  0
   10.7680   34.2606   16.8186 C   0  0  0  0  0  0  0  0  0  0  0  0
   14.7253   35.7156   10.3358 N   0  0  0  0  0  0  0  0  0  0  0  0
   15.5309   34.0634   13.6751 C   0  0  0  0  0  0  0  0  0  0  0  0
   14.5672   34.7406   14.5281 O   0  0  0  0  0  0  0  0  0  0  0  0
   15.7914   35.0037   12.4250 C   0  0  0  0  0  0  0  0  0  0  0  0
   12.4657   32.8933   15.6567 C   0  0  0  0  0  0  0  0  0  0  0  0
   15.9280   31.6977   14.1756 N   0  0  0  0  0  0  0  0  0  0  0  0
   10.4400   31.9973   16.4857 C   0  0  0  0  0  0  0  0  0  0  0  0
   12.6066   35.4439   15.7619 N   0  0  0  0  0  0  0  0  0  0  0  0
   14.6047   31.5999   14.7203 C   0  0  0  0  0  0  0  0  0  0  0  0
   12.9201   35.7499   11.9209 C   0  0  0  0  0  0  0  0  0  0  0  0
   13.7309   32.5006   15.1121 N   0  0  0  0  0  0  0  0  0  0  0  0
   14.0340   36.9350   14.8205 O   0  0  0  0  0  0  0  0  0  0  0  0
   14.4419   35.4282   11.7294 C   0  0  0  0  0  0  0  0  0  0  0  0
   10.4161   35.4384   17.3984 N   0  0  0  0  0  0  0  0  0  0  0  0
  1  7  1  0
  1 14  2  0
  2  7  1  0
  2 12  1  0
  2 15  2  0
  3 10  1  0
  3 15  1  0
  3 19  2  0
  4 12  2  0
  4 14  1  0
  5  6  2  0
  5  9  1  0
  5 13  1  0
  7 21  2  0
  8 20  1  0
  9 10  1  0
  9 11  1  0
 11 20  1  0
 12 18  1  0
 13 16  1  0
 16 18  2  0
 17 20  1  0
M  END
>  <ID>  (1) 
conformer_0

$$$$
