
     RDKit          3D

 18 20  0  0  0  0  0  0  0  0999 V2000
   11.9773   33.2135   16.1320 C   0  0  0  0  0  0  0  0  0  0  0  0
   13.6504   34.7063   14.2952 C   0  0  0  0  0  0  0  0  0  0  0  0
   12.1218   31.2882   14.7021 C   0  0  0  0  0  0  0  0  0  0  0  0
   15.1453   34.6082   12.3781 C   0  0  0  0  0  0  0  0  0  0  0  0
   11.0209   32.5467   16.8691 N   0  0  0  0  0  0  0  0  0  0  0  0
   14.9356   33.2474   12.2073 C   0  0  0  0  0  0  0  0  0  0  0  0
   12.5116   32.5904   14.9775 C   0  0  0  0  0  0  0  0  0  0  0  0
   12.4540   34.5343   16.5485 C   0  0  0  0  0  0  0  0  0  0  0  0
   11.1523   30.6403   15.4198 C   0  0  0  0  0  0  0  0  0  0  0  0
   13.8717   37.5816   15.1275 O   0  0  0  0  0  0  0  0  0  0  0  0
   12.0110   37.3577   16.3127 O   0  0  0  0  0  0  0  0  0  0  0  0
   13.4191   33.3024   14.0938 C   0  0  0  0  0  0  0  0  0  0  0  0
   12.9859   35.4025   15.4215 C   0  0  0  0  0  0  0  0  0  0  0  0
   10.5935   31.2919   16.5192 C   0  0  0  0  0  0  0  0  0  0  0  0
   12.9824   36.8527   15.6555 C   0  0  0  0  0  0  0  0  0  0  0  0
   14.0779   32.6350   13.0645 C   0  0  0  0  0  0  0  0  0  0  0  0
   14.5137   35.3071   13.3703 C   0  0  0  0  0  0  0  0  0  0  0  0
   16.0497   35.2676   11.5368 F   0  0  0  0  0  0  0  0  0  0  0  0
  1  5  2  0
  1  7  1  0
  1  8  1  0
  2 12  2  0
  2 13  1  0
  2 17  1  0
  3  7  2  0
  3  9  1  0
  4  6  1  0
  4 17  2  0
  4 18  1  0
  5 14  1  0
  6 16  2  0
  7 12  1  0
  8 13  1  0
  9 14  2  0
 10 15  2  0
 11 15  1  0
 12 16  1  0
 13 15  1  0
M  END
>  <ID>  (1) 
conformer_0

$$$$
