
     RDKit          3D

 11 10  0  0  0  0  0  0  0  0999 V2000
   10.7308   32.6018   16.9713 C   0  0  0  0  0  0  0  0  0  0  0  0
   15.8888   35.3801   12.4051 C   0  0  0  0  0  0  0  0  0  0  0  0
   10.9322   31.2611   16.4898 C   0  0  0  0  0  0  0  0  0  0  0  0
   13.6532   35.7381   15.2805 C   0  0  0  0  0  0  0  0  0  0  0  0
   13.5088   34.3568   15.4945 C   0  0  0  0  0  0  0  0  0  0  0  0
    9.6838   33.1848   17.2591 O   0  0  0  0  0  0  0  0  0  0  0  0
   12.5484   33.3503   15.6553 C   0  0  0  0  0  0  0  0  0  0  0  0
   14.7888   35.6001   11.4060 N   0  0  0  0  0  0  0  0  0  0  0  0
   15.1933   34.8519   13.6625 C   0  0  0  0  0  0  0  0  0  0  0  0
   14.2977   35.9781   14.0284 N   0  0  0  0  0  0  0  0  0  0  0  0
   11.9638   33.3522   16.9461 O   0  0  0  0  0  0  0  0  0  0  0  0
  1  3  1  0
  1  6  2  0
  1 11  1  0
  2  8  1  0
  2  9  1  0
  4  5  1  0
  4 10  1  0
  5  7  1  0
  7 11  1  0
  9 10  1  0
M  END
>  <ID>  (1) 
conformer_0

$$$$
