
     RDKit          3D

 20 22  0  0  0  0  0  0  0  0999 V2000
   15.2596   35.2558   10.9598 C   0  0  0  0  0  0  0  0  0  0  0  0
   12.7311   36.5816   15.6523 C   0  0  0  0  0  0  0  0  0  0  0  0
   16.4922   34.5680   11.0003 C   0  0  0  0  0  0  0  0  0  0  0  0
   11.3024   36.5646   17.7138 C   0  0  0  0  0  0  0  0  0  0  0  0
   12.2669   33.5095   15.5973 C   0  0  0  0  0  0  0  0  0  0  0  0
   14.5048   35.4091   12.0559 N   0  0  0  0  0  0  0  0  0  0  0  0
   16.8665   34.0039   12.2371 C   0  0  0  0  0  0  0  0  0  0  0  0
   11.9897   32.1297   15.5102 C   0  0  0  0  0  0  0  0  0  0  0  0
   10.4632   31.6966   16.3963 C   0  0  0  0  0  0  0  0  0  0  0  0
   13.5653   36.2087   14.7002 N   0  0  0  0  0  0  0  0  0  0  0  0
   13.8827   34.9427   14.3109 C   0  0  0  0  0  0  0  0  0  0  0  0
   10.4168   33.9716   17.0999 N   0  0  0  0  0  0  0  0  0  0  0  0
    9.9435   32.7134   17.0545 C   0  0  0  0  0  0  0  0  0  0  0  0
   13.2904   33.9195   14.8682 N   0  0  0  0  0  0  0  0  0  0  0  0
   12.6132   37.8739   15.7592 O   0  0  0  0  0  0  0  0  0  0  0  0
   11.5088   34.4104   16.4169 C   0  0  0  0  0  0  0  0  0  0  0  0
   14.8367   34.8365   13.2374 C   0  0  0  0  0  0  0  0  0  0  0  0
   16.0271   34.1435   13.3553 C   0  0  0  0  0  0  0  0  0  0  0  0
   11.3511   31.1399   15.7026 C   0  0  0  0  0  0  0  0  0  0  0  0
   11.8881   35.7899   16.5477 C   0  0  0  0  0  0  0  0  0  0  0  0
  1  3  2  0
  1  6  1  0
  2 10  1  0
  2 15  2  0
  2 20  1  0
  3  7  1  0
  4 20  1  0
  5  8  1  0
  5 14  1  0
  5 16  2  0
  6 17  2  0
  7 18  2  0
  8 19  1  0
  9 13  2  0
  9 19  1  0
 10 11  2  0
 11 14  1  0
 11 17  1  0
 12 13  1  0
 12 16  1  0
 16 20  1  0
 17 18  1  0
M  END
>  <ID>  (1) 
conformer_0

$$$$
