
     RDKit          3D

 11 11  0  0  0  0  0  0  0  0999 V2000
   13.7953   35.0082   12.7537 C   0  0  0  0  0  0  0  0  0  0  0  0
   11.9936   33.8122   15.7237 C   0  0  0  0  0  0  0  0  0  0  0  0
   11.5807   32.5501   15.6244 C   0  0  0  0  0  0  0  0  0  0  0  0
   12.8286   35.8463   12.2721 N   0  0  0  0  0  0  0  0  0  0  0  0
   13.3820   35.6940   15.3303 O   0  0  0  0  0  0  0  0  0  0  0  0
   10.3102   33.5312   17.1888 C   0  0  0  0  0  0  0  0  0  0  0  0
   10.4957   32.3701   16.5310 N   0  0  0  0  0  0  0  0  0  0  0  0
   13.0005   34.5349   14.9610 C   0  0  0  0  0  0  0  0  0  0  0  0
   15.0874   35.0900   12.1005 C   0  0  0  0  0  0  0  0  0  0  0  0
   13.4581   34.0761   13.7534 N   0  0  0  0  0  0  0  0  0  0  0  0
   11.2227   34.4223   16.6990 C   0  0  0  0  0  0  0  0  0  0  0  0
  1  4  2  0
  1  9  1  0
  1 10  1  0
  2  3  1  0
  2  8  1  0
  2 11  1  0
  3  7  1  0
  5  8  2  0
  6  7  1  0
  6 11  1  0
  8 10  1  0
M  END
>  <ID>  (1) 
conformer_0

$$$$
