
     RDKit          3D

 28 32  0  0  0  0  0  0  0  0999 V2000
   13.7773   33.6727   14.4285 N   0  0  0  0  0  0  0  0  0  0  0  0
   16.9819   33.1349   12.6790 C   0  0  0  0  0  0  0  0  0  0  0  0
   14.4088   37.2334   14.7327 C   0  0  0  0  0  0  0  0  0  0  0  0
   15.4601   33.1066   12.7767 C   0  0  0  0  0  0  0  0  0  0  0  0
   17.4607   31.6830   12.9230 C   0  0  0  0  0  0  0  0  0  0  0  0
   17.7016   33.9483   13.7464 C   0  0  0  0  0  0  0  0  0  0  0  0
   14.7584   33.7809   11.6126 C   0  0  0  0  0  0  0  0  0  0  0  0
   13.3919   37.5579   15.6096 C   0  0  0  0  0  0  0  0  0  0  0  0
   11.6057   34.5046   16.2016 C   0  0  0  0  0  0  0  0  0  0  0  0
   15.9860   34.5346   10.9624 C   0  0  0  0  0  0  0  0  0  0  0  0
   16.3072   35.6692   12.0212 C   0  0  0  0  0  0  0  0  0  0  0  0
   17.5178   36.1600   11.6723 O   0  0  0  0  0  0  0  0  0  0  0  0
   12.5172   36.6055   16.0576 C   0  0  0  0  0  0  0  0  0  0  0  0
   15.6558   35.7498   13.2633 C   0  0  0  0  0  0  0  0  0  0  0  0
   10.3391   31.2251   16.4846 N   0  0  0  0  0  0  0  0  0  0  0  0
   12.1824   31.8218   15.3376 C   0  0  0  0  0  0  0  0  0  0  0  0
    9.7510   33.0813   17.5912 O   0  0  0  0  0  0  0  0  0  0  0  0
   11.5950   33.0201   15.9757 N   0  0  0  0  0  0  0  0  0  0  0  0
   17.2240   33.5366   11.2144 C   0  0  0  0  0  0  0  0  0  0  0  0
   12.6338   35.2998   15.6378 C   0  0  0  0  0  0  0  0  0  0  0  0
   13.1383   30.8456   14.0332 S   0  0  0  0  0  0  0  0  0  0  0  0
   14.5617   35.9173   14.2918 C   0  0  0  0  0  0  0  0  0  0  0  0
   13.6504   34.9288   14.7723 C   0  0  0  0  0  0  0  0  0  0  0  0
   11.3101   30.6425   15.7268 C   0  0  0  0  0  0  0  0  0  0  0  0
   14.9068   32.9176   14.1163 C   0  0  0  0  0  0  0  0  0  0  0  0
   10.8271   35.3726   17.0330 C   0  0  0  0  0  0  0  0  0  0  0  0
   10.5149   32.5202   16.7492 C   0  0  0  0  0  0  0  0  0  0  0  0
   11.4247   36.7230   16.9509 C   0  0  0  0  0  0  0  0  0  0  0  0
  1 23  1  0
  1 25  1  0
  2  4  1  0
  2  5  1  0
  2  6  1  0
  2 19  1  0
  3  8  1  0
  3 22  1  0
  4  7  1  0
  4 25  1  0
  7 10  1  0
  8 13  2  0
  9 18  1  0
  9 20  1  0
  9 26  1  0
 10 11  1  0
 10 19  1  0
 11 12  1  0
 11 14  2  0
 13 20  1  0
 13 28  1  0
 14 22  2  0
 15 24  1  0
 15 27  1  0
 16 18  1  0
 16 21  2  0
 16 24  1  0
 17 27  2  0
 18 27  1  0
 20 23  2  0
 22 23  1  0
 26 28  1  0
M  END
>  <ID>  (1) 
conformer_0

$$$$
