
     RDKit          3D

 21 24  0  0  0  0  0  0  0  0999 V2000
   12.5177   37.5461   16.0342 N   0  0  0  0  0  0  0  0  0  0  0  0
    9.5412   32.5954   17.4133 O   0  0  0  0  0  0  0  0  0  0  0  0
   11.6448   36.7798   16.6635 C   0  0  0  0  0  0  0  0  0  0  0  0
   13.7143   35.7828   12.5899 N   0  0  0  0  0  0  0  0  0  0  0  0
   13.3892   36.9717   15.1686 C   0  0  0  0  0  0  0  0  0  0  0  0
   13.3943   35.6107   14.9355 C   0  0  0  0  0  0  0  0  0  0  0  0
   12.5134   34.7715   15.6486 C   0  0  0  0  0  0  0  0  0  0  0  0
   17.1531   36.0419   13.4298 C   0  0  0  0  0  0  0  0  0  0  0  0
   11.5502   32.6466   16.2832 C   0  0  0  0  0  0  0  0  0  0  0  0
   17.4052   34.6036   11.5809 C   0  0  0  0  0  0  0  0  0  0  0  0
   15.8551   35.1221   13.5197 C   0  0  0  0  0  0  0  0  0  0  0  0
   14.2754   35.0844   13.8441 C   0  0  0  0  0  0  0  0  0  0  0  0
   16.0543   34.3223   12.1709 C   0  0  0  0  0  0  0  0  0  0  0  0
   10.5261   33.2936   16.9534 C   0  0  0  0  0  0  0  0  0  0  0  0
   12.5062   33.3726   15.6186 C   0  0  0  0  0  0  0  0  0  0  0  0
   13.9012   35.1656   11.3004 C   0  0  0  0  0  0  0  0  0  0  0  0
   17.8325   35.8343   12.1512 O   0  0  0  0  0  0  0  0  0  0  0  0
   11.6048   31.2800   16.3295 O   0  0  0  0  0  0  0  0  0  0  0  0
   10.5667   34.6647   17.0859 C   0  0  0  0  0  0  0  0  0  0  0  0
   11.5614   35.4165   16.4777 C   0  0  0  0  0  0  0  0  0  0  0  0
   15.4693   35.2268   11.0245 C   0  0  0  0  0  0  0  0  0  0  0  0
  1  3  2  0
  1  5  1  0
  2 14  1  0
  3 20  1  0
  4 12  1  0
  4 16  1  0
  5  6  2  0
  6  7  1  0
  6 12  1  0
  7 15  1  0
  7 20  2  0
  8 11  1  0
  8 17  1  0
  9 14  1  0
  9 15  2  0
  9 18  1  0
 10 13  1  0
 10 17  1  0
 11 12  1  0
 11 13  1  0
 13 21  1  0
 14 19  2  0
 16 21  1  0
 19 20  1  0
M  END
>  <ID>  (1) 
conformer_0

$$$$
