
     RDKit          3D

 12 12  0  0  0  0  0  0  0  0999 V2000
   10.0053   33.2734   17.4873 O   0  0  0  0  0  0  0  0  0  0  0  0
   13.9603   35.5260   12.7005 C   0  0  0  0  0  0  0  0  0  0  0  0
   13.0040   35.9629   14.9085 C   0  0  0  0  0  0  0  0  0  0  0  0
   11.3576   34.9109   16.4243 N   0  0  0  0  0  0  0  0  0  0  0  0
   12.0145   32.8056   16.3334 N   0  0  0  0  0  0  0  0  0  0  0  0
   14.1318   32.9480   15.1179 C   0  0  0  0  0  0  0  0  0  0  0  0
   11.0666   33.6475   16.8063 C   0  0  0  0  0  0  0  0  0  0  0  0
   15.1817   34.8309   12.3456 C   0  0  0  0  0  0  0  0  0  0  0  0
   13.6622   36.0895   13.8396 N   0  0  0  0  0  0  0  0  0  0  0  0
   12.9462   33.5547   15.6251 C   0  0  0  0  0  0  0  0  0  0  0  0
   13.1838   35.8671   11.5336 O   0  0  0  0  0  0  0  0  0  0  0  0
   12.4869   34.8870   15.6044 C   0  0  0  0  0  0  0  0  0  0  0  0
  1  7  2  0
  2  8  1  0
  2  9  1  0
  2 11  2  0
  3  9  1  0
  3 12  1  0
  4  7  1  0
  4 12  1  0
  5  7  1  0
  5 10  1  0
  6 10  1  0
 10 12  2  0
M  END
>  <ID>  (1) 
conformer_0

$$$$
