
     RDKit          3D

 23 25  0  0  0  0  0  0  0  0999 V2000
   14.7549   32.9421   12.4208 C   0  0  0  0  0  0  0  0  0  0  0  0
   11.6985   32.9266   15.6963 C   0  0  0  0  0  0  0  0  0  0  0  0
   10.8010   34.7407   17.0176 C   0  0  0  0  0  0  0  0  0  0  0  0
   10.9318   36.0448   17.4120 C   0  0  0  0  0  0  0  0  0  0  0  0
   16.1575   32.6169   14.5032 O   0  0  0  0  0  0  0  0  0  0  0  0
   15.7089   34.8146   13.7658 O   0  0  0  0  0  0  0  0  0  0  0  0
   16.4221   34.7100   11.5097 C   0  0  0  0  0  0  0  0  0  0  0  0
   13.1701   31.8508   14.3466 O   0  0  0  0  0  0  0  0  0  0  0  0
   14.9813   35.1711   11.4110 C   0  0  0  0  0  0  0  0  0  0  0  0
   13.2110   34.7432   13.0564 C   0  0  0  0  0  0  0  0  0  0  0  0
   11.7014   34.2716   16.0841 C   0  0  0  0  0  0  0  0  0  0  0  0
   10.7636   32.1219   16.2369 C   0  0  0  0  0  0  0  0  0  0  0  0
   15.5522   33.5264   13.5247 C   0  0  0  0  0  0  0  0  0  0  0  0
   12.7266   32.9105   14.7492 C   0  0  0  0  0  0  0  0  0  0  0  0
    9.8536   33.8946   17.5290 C   0  0  0  0  0  0  0  0  0  0  0  0
   12.8680   36.3356   15.9113 C   0  0  0  0  0  0  0  0  0  0  0  0
   13.1107   34.2362   14.4289 N   0  0  0  0  0  0  0  0  0  0  0  0
    9.8183   32.5797   17.1400 N   0  0  0  0  0  0  0  0  0  0  0  0
   12.6471   35.0627   15.4549 C   0  0  0  0  0  0  0  0  0  0  0  0
   16.7125   34.2554   12.9475 C   0  0  0  0  0  0  0  0  0  0  0  0
   14.4114   35.8646   10.3603 O   0  0  0  0  0  0  0  0  0  0  0  0
   13.9595   34.1741   11.8768 C   0  0  0  0  0  0  0  0  0  0  0  0
   11.9580   36.8662   16.8909 C   0  0  0  0  0  0  0  0  0  0  0  0
  1 13  1  0
  1 22  1  0
  2 11  1  0
  2 12  2  0
  2 14  1  0
  3  4  2  0
  3 11  1  0
  3 15  1  0
  4 23  1  0
  5 13  2  0
  6 13  1  0
  7  9  1  0
  7 20  1  0
  8 14  2  0
  9 21  1  0
  9 22  1  0
 10 17  1  0
 10 22  1  0
 11 19  1  0
 12 18  1  0
 14 17  1  0
 15 18  2  0
 16 19  2  0
 16 23  1  0
 17 19  1  0
M  END
>  <ID>  (1) 
conformer_0

$$$$
