
     RDKit          3D

 13 14  0  0  0  0  0  0  0  0999 V2000
   12.1951   33.4662   15.2400 C   0  0  0  0  0  0  0  0  0  0  0  0
   12.7157   35.8339   15.2255 C   0  0  0  0  0  0  0  0  0  0  0  0
   12.9573   33.3180   14.0901 C   0  0  0  0  0  0  0  0  0  0  0  0
   10.6335   32.4111   16.7585 C   0  0  0  0  0  0  0  0  0  0  0  0
   11.9948   34.7302   15.8444 C   0  0  0  0  0  0  0  0  0  0  0  0
   13.4169   35.3216   12.8491 C   0  0  0  0  0  0  0  0  0  0  0  0
   13.3794   33.9452   13.0478 C   0  0  0  0  0  0  0  0  0  0  0  0
   10.3682   33.6743   17.2884 N   0  0  0  0  0  0  0  0  0  0  0  0
   11.6401   32.2971   15.7831 C   0  0  0  0  0  0  0  0  0  0  0  0
   13.5594   35.8142   11.5796 N   0  0  0  0  0  0  0  0  0  0  0  0
   13.2567   36.1664   13.9896 N   0  0  0  0  0  0  0  0  0  0  0  0
   12.1407   30.9599   15.2799 C   0  0  0  0  0  0  0  0  0  0  0  0
   11.1273   34.7700   16.8906 N   0  0  0  0  0  0  0  0  0  0  0  0
  1  3  1  0
  1  5  2  0
  1  9  1  0
  2  5  1  0
  2 11  2  0
  3  7  1  0
  4  8  1  0
  4  9  2  0
  5 13  1  0
  6  7  1  0
  6 10  2  0
  6 11  1  0
  8 13  2  0
  9 12  1  0
M  END
>  <ID>  (1) 
conformer_0

$$$$
