
     RDKit          3D

 15 16  0  0  0  0  0  0  0  0999 V2000
   13.4342   34.8050   15.0857 C   0  0  0  0  0  0  0  0  0  0  0  0
   15.0132   35.1533   12.9648 C   0  0  0  0  0  0  0  0  0  0  0  0
   10.0913   33.0740   17.1890 N   0  0  0  0  0  0  0  0  0  0  0  0
   13.0627   33.4661   15.0604 N   0  0  0  0  0  0  0  0  0  0  0  0
   11.1076   31.0271   16.3547 N   0  0  0  0  0  0  0  0  0  0  0  0
   13.9075   35.2728   11.8560 C   0  0  0  0  0  0  0  0  0  0  0  0
   10.5102   34.5695   17.1401 C   0  0  0  0  0  0  0  0  0  0  0  0
   11.0367   32.3789   16.4646 C   0  0  0  0  0  0  0  0  0  0  0  0
   11.9794   33.3206   15.8807 C   0  0  0  0  0  0  0  0  0  0  0  0
   14.6394   35.5139   14.3844 C   0  0  0  0  0  0  0  0  0  0  0  0
   12.5915   35.5170   15.8693 N   0  0  0  0  0  0  0  0  0  0  0  0
   14.8478   36.8547   14.7231 O   0  0  0  0  0  0  0  0  0  0  0  0
   11.6649   34.6271   16.3472 C   0  0  0  0  0  0  0  0  0  0  0  0
   16.9778   36.7786   12.9843 O   0  0  0  0  0  0  0  0  0  0  0  0
   16.3203   35.6354   12.3265 C   0  0  0  0  0  0  0  0  0  0  0  0
  1  4  2  0
  1 10  1  0
  1 11  1  0
  2  6  1  0
  2 10  1  0
  2 15  1  0
  3  7  1  0
  3  8  1  0
  4  9  1  0
  5  8  2  0
  7 13  1  0
  8  9  1  0
  9 13  2  0
 10 12  1  0
 11 13  1  0
 14 15  1  0
M  END
>  <ID>  (1) 
conformer_0

$$$$
