
     RDKit          3D

 12 13  0  0  0  0  0  0  0  0999 V2000
   14.2632   35.3762   14.2839 C   0  0  0  0  0  0  0  0  0  0  0  0
   12.2892   32.4034   15.1216 C   0  0  0  0  0  0  0  0  0  0  0  0
   11.2498   32.2780   16.0332 C   0  0  0  0  0  0  0  0  0  0  0  0
   10.8095   33.3760   16.7981 C   0  0  0  0  0  0  0  0  0  0  0  0
   13.8467   33.9765   13.9682 C   0  0  0  0  0  0  0  0  0  0  0  0
   12.5505   34.7138   15.7371 C   0  0  0  0  0  0  0  0  0  0  0  0
   11.4955   34.5930   16.6533 C   0  0  0  0  0  0  0  0  0  0  0  0
   12.8770   33.6158   14.9369 C   0  0  0  0  0  0  0  0  0  0  0  0
   14.9308   35.9811   13.2929 N   0  0  0  0  0  0  0  0  0  0  0  0
   14.5146   35.7689   11.9110 O   0  0  0  0  0  0  0  0  0  0  0  0
   13.4232   35.8332   15.4170 C   0  0  0  0  0  0  0  0  0  0  0  0
    9.7750   33.2728   17.6035 O   0  0  0  0  0  0  0  0  0  0  0  0
  1  5  1  0
  1  9  1  0
  1 11  1  0
  2  3  1  0
  2  8  2  0
  3  4  1  0
  4  7  2  0
  4 12  1  0
  5  8  1  0
  6  7  1  0
  6  8  1  0
  6 11  1  0
  9 10  1  0
M  END
>  <ID>  (1) 
conformer_0

$$$$
