
     RDKit          3D

 12 12  0  0  0  0  0  0  0  0999 V2000
   13.2017   35.7155   12.3922 O   0  0  0  0  0  0  0  0  0  0  0  0
   12.5072   33.4599   14.9427 C   0  0  0  0  0  0  0  0  0  0  0  0
   10.0699   33.8826   17.6189 O   0  0  0  0  0  0  0  0  0  0  0  0
   11.5677   35.4699   16.5955 C   0  0  0  0  0  0  0  0  0  0  0  0
   15.1060   34.7460   13.4705 C   0  0  0  0  0  0  0  0  0  0  0  0
   12.4770   35.7796   15.6000 C   0  0  0  0  0  0  0  0  0  0  0  0
   15.7543   35.7937   12.5619 N   0  0  0  0  0  0  0  0  0  0  0  0
   12.9067   34.7925   14.6992 C   0  0  0  0  0  0  0  0  0  0  0  0
   11.6233   33.1350   15.9366 C   0  0  0  0  0  0  0  0  0  0  0  0
   13.6773   35.1427   13.5006 C   0  0  0  0  0  0  0  0  0  0  0  0
   11.2521   31.7201   16.1775 C   0  0  0  0  0  0  0  0  0  0  0  0
   11.0715   34.1545   16.7411 C   0  0  0  0  0  0  0  0  0  0  0  0
  1 10  1  0
  2  8  2  0
  2  9  1  0
  3 12  1  0
  4  6  2  0
  4 12  1  0
  5  7  1  0
  5 10  1  0
  6  8  1  0
  8 10  1  0
  9 11  1  0
  9 12  2  0
M  END
>  <ID>  (1) 
conformer_0

$$$$
