
     RDKit          3D

 21 25  0  0  0  0  0  0  0  0999 V2000
   12.6586   34.5841   15.2795 C   0  0  0  0  0  0  0  0  0  0  0  0
    9.0455   33.6929   17.9295 O   0  0  0  0  0  0  0  0  0  0  0  0
   11.7308   33.7524   15.9100 C   0  0  0  0  0  0  0  0  0  0  0  0
   14.9344   34.5304   12.3995 N   0  0  0  0  0  0  0  0  0  0  0  0
   12.7924   35.9351   15.6093 C   0  0  0  0  0  0  0  0  0  0  0  0
   10.9826   35.6201   17.1733 C   0  0  0  0  0  0  0  0  0  0  0  0
   10.2999   32.0812   16.6230 O   0  0  0  0  0  0  0  0  0  0  0  0
   13.2690   32.6261   13.9965 N   0  0  0  0  0  0  0  0  0  0  0  0
   13.4071   33.9754   14.2715 C   0  0  0  0  0  0  0  0  0  0  0  0
   14.6533   36.0776   13.9663 C   0  0  0  0  0  0  0  0  0  0  0  0
   13.7765   36.7496   14.8873 C   0  0  0  0  0  0  0  0  0  0  0  0
   14.3775   33.7129   11.3445 C   0  0  0  0  0  0  0  0  0  0  0  0
   15.9389   35.4977   12.2069 C   0  0  0  0  0  0  0  0  0  0  0  0
   10.8726   34.3027   16.8288 C   0  0  0  0  0  0  0  0  0  0  0  0
   11.9645   36.4680   16.5741 C   0  0  0  0  0  0  0  0  0  0  0  0
   14.3127   34.7856   13.5341 C   0  0  0  0  0  0  0  0  0  0  0  0
   12.4537   31.8773   14.7196 C   0  0  0  0  0  0  0  0  0  0  0  0
   15.7797   36.4743   13.2116 C   0  0  0  0  0  0  0  0  0  0  0  0
   13.7425   38.0556   14.9395 O   0  0  0  0  0  0  0  0  0  0  0  0
   11.5923   32.4499   15.6931 N   0  0  0  0  0  0  0  0  0  0  0  0
    9.9632   33.3288   17.2419 C   0  0  0  0  0  0  0  0  0  0  0  0
  1  3  1  0
  1  5  1  0
  1  9  1  0
  2 21  2  0
  3 14  2  0
  3 20  1  0
  4 12  1  0
  4 13  1  0
  4 16  1  0
  5 11  2  0
  5 15  1  0
  6 14  1  0
  6 15  2  0
  7 20  1  0
  7 21  1  0
  8  9  1  0
  8 17  2  0
  9 16  2  0
 10 11  1  0
 10 16  1  0
 10 18  1  0
 11 19  1  0
 13 18  1  0
 14 21  1  0
 17 20  1  0
M  END
>  <ID>  (1) 
conformer_0

$$$$
