
     RDKit          3D

 23 24  0  0  0  0  0  0  0  0999 V2000
   12.8544   36.9779   16.6707 C   0  0  0  0  0  0  0  0  0  0  0  0
   14.4668   36.1028   15.0687 C   0  0  0  0  0  0  0  0  0  0  0  0
   11.0106   35.6616   17.4134 C   0  0  0  0  0  0  0  0  0  0  0  0
   12.7617   33.1174   14.9944 C   0  0  0  0  0  0  0  0  0  0  0  0
   13.0827   32.0471   14.2611 C   0  0  0  0  0  0  0  0  0  0  0  0
   13.2686   35.9097   15.8745 C   0  0  0  0  0  0  0  0  0  0  0  0
   15.1805   35.1046   11.4382 C   0  0  0  0  0  0  0  0  0  0  0  0
   12.5458   30.7746   14.2217 C   0  0  0  0  0  0  0  0  0  0  0  0
    9.8645   32.8265   17.0854 O   0  0  0  0  0  0  0  0  0  0  0  0
   14.8690   35.0760   14.2465 O   0  0  0  0  0  0  0  0  0  0  0  0
   15.0435   37.2265   14.9615 O   0  0  0  0  0  0  0  0  0  0  0  0
   15.4123   35.3883   12.9330 C   0  0  0  0  0  0  0  0  0  0  0  0
   17.7736   34.9661   12.3140 C   0  0  0  0  0  0  0  0  0  0  0  0
   16.8467   35.9496   13.1032 C   0  0  0  0  0  0  0  0  0  0  0  0
   12.5283   34.7192   15.8790 C   0  0  0  0  0  0  0  0  0  0  0  0
   11.4809   34.6761   16.6204 C   0  0  0  0  0  0  0  0  0  0  0  0
   10.8338   31.2690   15.8628 N   0  0  0  0  0  0  0  0  0  0  0  0
   11.4607   30.4738   15.0419 C   0  0  0  0  0  0  0  0  0  0  0  0
   10.8495   32.5503   16.2945 C   0  0  0  0  0  0  0  0  0  0  0  0
   13.7558   34.5308   11.3208 C   0  0  0  0  0  0  0  0  0  0  0  0
   12.7799   35.6741   11.7904 C   0  0  0  0  0  0  0  0  0  0  0  0
   11.7109   36.8398   17.4465 C   0  0  0  0  0  0  0  0  0  0  0  0
   11.8855   33.6162   15.8897 C   0  0  0  0  0  0  0  0  0  0  0  0
  1  6  2  0
  1 22  1  0
  2  6  1  0
  2 10  1  0
  2 11  2  0
  3 16  1  0
  3 22  2  0
  4  5  1  0
  4 23  2  0
  5  8  2  0
  6 15  1  0
  7 12  1  0
  7 20  1  0
  8 18  1  0
  9 19  2  0
 10 12  1  0
 12 14  1  0
 13 14  1  0
 15 16  2  0
 15 23  1  0
 17 18  2  0
 17 19  1  0
 19 23  1  0
 20 21  1  0
M  END
>  <ID>  (1) 
conformer_0

$$$$
