
     RDKit          3D

 22 26  0  0  0  0  0  0  0  0999 V2000
   13.8376   34.9585   14.2433 C   0  0  0  0  0  0  0  0  0  0  0  0
   12.1879   35.1448   16.0573 C   0  0  0  0  0  0  0  0  0  0  0  0
   13.9229   36.3950   14.2684 C   0  0  0  0  0  0  0  0  0  0  0  0
    9.9979   34.5710   17.2833 C   0  0  0  0  0  0  0  0  0  0  0  0
   15.4737   34.8343   11.8536 N   0  0  0  0  0  0  0  0  0  0  0  0
   14.9433   32.9622   13.0763 C   0  0  0  0  0  0  0  0  0  0  0  0
   16.2621   32.7033   12.3921 C   0  0  0  0  0  0  0  0  0  0  0  0
   14.6436   32.1259   14.3044 C   0  0  0  0  0  0  0  0  0  0  0  0
   13.3927   31.1902   14.0624 C   0  0  0  0  0  0  0  0  0  0  0  0
   14.7071   34.4387   13.0866 C   0  0  0  0  0  0  0  0  0  0  0  0
   13.0767   38.4341   15.0384 O   0  0  0  0  0  0  0  0  0  0  0  0
   13.2792   37.1273   15.2603 N   0  0  0  0  0  0  0  0  0  0  0  0
   11.1412   34.5002   16.6202 N   0  0  0  0  0  0  0  0  0  0  0  0
   12.4548   31.3424   15.1390 C   0  0  0  0  0  0  0  0  0  0  0  0
   11.2371   33.1067   16.2017 C   0  0  0  0  0  0  0  0  0  0  0  0
    9.3995   33.3977   17.3683 N   0  0  0  0  0  0  0  0  0  0  0  0
   16.5189   33.8736   11.5179 C   0  0  0  0  0  0  0  0  0  0  0  0
   12.8613   34.3246   15.2225 C   0  0  0  0  0  0  0  0  0  0  0  0
   10.1579   32.4306   16.7106 C   0  0  0  0  0  0  0  0  0  0  0  0
   12.2740   32.9315   15.4652 N   0  0  0  0  0  0  0  0  0  0  0  0
   12.5615   36.5074   16.3147 C   0  0  0  0  0  0  0  0  0  0  0  0
   12.2282   37.0617   17.6456 C   0  0  0  0  0  0  0  0  0  0  0  0
  1  3  1  0
  1 10  1  0
  1 18  2  0
  2 13  1  0
  2 18  1  0
  2 21  1  0
  3 12  1  0
  4 13  1  0
  4 16  1  0
  5 10  1  0
  5 17  1  0
  6  7  1  0
  6  8  1  0
  6 10  1  0
  7 17  1  0
  8  9  1  0
  9 14  1  0
 11 12  1  0
 12 21  1  0
 13 15  1  0
 14 20  1  0
 15 19  1  0
 15 20  1  0
 16 19  1  0
 18 20  1  0
 21 22  1  0
M  END
>  <ID>  (1) 
conformer_0

$$$$
