
     RDKit          3D

 32 37  0  0  0  0  0  0  0  0999 V2000
   15.9759   34.8683   12.1763 C   0  0  0  0  0  0  0  0  0  0  0  0
   12.9230   27.7783   14.1611 C   0  0  0  0  0  0  0  0  0  0  0  0
   13.1894   35.4963   14.6564 N   0  0  0  0  0  0  0  0  0  0  0  0
   16.5833   31.9691   14.1274 C   0  0  0  0  0  0  0  0  0  0  0  0
    9.5476   33.8050   17.3154 N   0  0  0  0  0  0  0  0  0  0  0  0
   15.3400   31.7906   14.7404 C   0  0  0  0  0  0  0  0  0  0  0  0
   11.6715   33.0280   15.7234 C   0  0  0  0  0  0  0  0  0  0  0  0
   18.0030   35.4317   10.9471 N   0  0  0  0  0  0  0  0  0  0  0  0
   13.0735   37.7067   15.7440 O   0  0  0  0  0  0  0  0  0  0  0  0
   10.4314   36.0149   17.5351 C   0  0  0  0  0  0  0  0  0  0  0  0
   12.5897   30.0688   14.6431 C   0  0  0  0  0  0  0  0  0  0  0  0
   13.2326   29.1160   13.9330 C   0  0  0  0  0  0  0  0  0  0  0  0
   10.9854   30.7689   16.3036 N   0  0  0  0  0  0  0  0  0  0  0  0
   12.3738   35.5017   15.6458 C   0  0  0  0  0  0  0  0  0  0  0  0
    9.6818   32.5535   16.9609 N   0  0  0  0  0  0  0  0  0  0  0  0
   14.9342   35.6808   11.7206 C   0  0  0  0  0  0  0  0  0  0  0  0
   12.2657   36.7661   16.2221 C   0  0  0  0  0  0  0  0  0  0  0  0
   16.7561   33.1115   13.3552 C   0  0  0  0  0  0  0  0  0  0  0  0
   14.5324   33.8281   13.8298 C   0  0  0  0  0  0  0  0  0  0  0  0
   10.8206   32.1105   16.2769 C   0  0  0  0  0  0  0  0  0  0  0  0
   17.3660   34.7997   11.8152 C   0  0  0  0  0  0  0  0  0  0  0  0
   15.7204   33.9395   13.1335 C   0  0  0  0  0  0  0  0  0  0  0  0
   13.7102   34.9448   13.6394 C   0  0  0  0  0  0  0  0  0  0  0  0
   11.6605   29.7656   15.5996 C   0  0  0  0  0  0  0  0  0  0  0  0
   11.9741   27.4431   15.1331 C   0  0  0  0  0  0  0  0  0  0  0  0
   11.3382   28.4459   15.8670 C   0  0  0  0  0  0  0  0  0  0  0  0
   14.3278   32.7197   14.6229 C   0  0  0  0  0  0  0  0  0  0  0  0
   11.5213   34.4233   16.1072 C   0  0  0  0  0  0  0  0  0  0  0  0
   13.7195   35.6634   12.4310 C   0  0  0  0  0  0  0  0  0  0  0  0
   11.3076   37.0248   17.1734 C   0  0  0  0  0  0  0  0  0  0  0  0
   17.8919   33.6878   12.6262 N   0  0  0  0  0  0  0  0  0  0  0  0
   10.5121   34.7376   16.9962 C   0  0  0  0  0  0  0  0  0  0  0  0
  1 16  2  0
  1 21  1  0
  1 22  1  0
  2 12  1  0
  2 25  1  0
  3 14  2  3
  3 23  1  0
  4  6  2  0
  4 18  1  0
  5 15  1  0
  5 32  2  0
  6 27  1  0
  7 20  2  0
  7 28  1  0
  8 21  2  0
  9 17  1  0
 10 30  1  0
 10 32  1  0
 11 12  2  0
 11 24  1  0
 13 20  1  0
 13 24  2  3
 14 17  1  0
 14 28  1  0
 15 20  1  0
 16 29  1  0
 17 30  2  0
 18 22  2  0
 18 31  1  0
 19 22  1  0
 19 23  1  0
 19 27  2  0
 21 31  1  0
 23 29  1  0
 24 26  1  0
 25 26  2  0
 28 32  1  0
M  END
>  <ID>  (1) 
conformer_0

$$$$
