
     RDKit          3D

 20 22  0  0  0  0  0  0  0  0999 V2000
   17.1030   33.9230   13.1860 C   0  0  0  0  0  0  0  0  0  0  0  0
   10.0555   35.5351   18.0833 N   0  0  0  0  0  0  0  0  0  0  0  0
   12.4452   34.4933   15.6065 C   0  0  0  0  0  0  0  0  0  0  0  0
   12.8626   33.1911   15.2948 C   0  0  0  0  0  0  0  0  0  0  0  0
   10.8479   32.3292   16.1991 N   0  0  0  0  0  0  0  0  0  0  0  0
   11.8701   36.8093   17.5181 O   0  0  0  0  0  0  0  0  0  0  0  0
   15.2141   35.1569   12.2116 C   0  0  0  0  0  0  0  0  0  0  0  0
   15.6586   34.1594   13.0533 N   0  0  0  0  0  0  0  0  0  0  0  0
   12.0035   32.1104   15.5507 C   0  0  0  0  0  0  0  0  0  0  0  0
   10.5641   33.5849   16.7795 C   0  0  0  0  0  0  0  0  0  0  0  0
   11.4078   34.6568   16.5171 C   0  0  0  0  0  0  0  0  0  0  0  0
   13.0981   35.6262   14.9107 C   0  0  0  0  0  0  0  0  0  0  0  0
   12.9521   36.9216   15.0428 O   0  0  0  0  0  0  0  0  0  0  0  0
   14.3269   35.9377   12.8544 N   0  0  0  0  0  0  0  0  0  0  0  0
   14.1135   32.9374   14.6892 C   0  0  0  0  0  0  0  0  0  0  0  0
   14.0158   35.2548   13.9518 C   0  0  0  0  0  0  0  0  0  0  0  0
    9.5504   33.8589   17.5568 O   0  0  0  0  0  0  0  0  0  0  0  0
   15.2624   35.1289   10.6665 C   0  0  0  0  0  0  0  0  0  0  0  0
   11.0964   35.8221   17.3286 C   0  0  0  0  0  0  0  0  0  0  0  0
   14.6595   34.0200   13.9912 C   0  0  0  0  0  0  0  0  0  0  0  0
  1  8  1  0
  2 19  1  0
  3  4  1  0
  3 11  1  0
  3 12  2  0
  4  9  1  0
  4 15  1  0
  5  9  2  0
  5 10  1  0
  6 19  2  0
  7  8  1  0
  7 14  2  0
  7 18  1  0
  8 20  1  0
 10 11  1  0
 10 17  2  0
 11 19  1  0
 12 13  1  0
 12 16  1  0
 14 16  1  0
 15 20  1  0
 16 20  1  0
M  END
>  <ID>  (1) 
conformer_0

$$$$
