
     RDKit          3D

 16 18  0  0  0  0  0  0  0  0999 V2000
   14.5964   33.0534   13.8201 C   0  0  0  0  0  0  0  0  0  0  0  0
   16.5086   34.5545   12.4924 C   0  0  0  0  0  0  0  0  0  0  0  0
   11.9269   31.7594   15.6383 N   0  0  0  0  0  0  0  0  0  0  0  0
   10.5805   33.0387   16.8331 C   0  0  0  0  0  0  0  0  0  0  0  0
   11.6199   33.8042   16.2681 C   0  0  0  0  0  0  0  0  0  0  0  0
   13.8297   35.4568   13.2257 C   0  0  0  0  0  0  0  0  0  0  0  0
   11.9140   35.1365   16.4255 C   0  0  0  0  0  0  0  0  0  0  0  0
   12.8851   35.6674   15.5904 C   0  0  0  0  0  0  0  0  0  0  0  0
   13.3509   34.9429   14.5058 C   0  0  0  0  0  0  0  0  0  0  0  0
    9.6887   33.5440   17.5603 N   0  0  0  0  0  0  0  0  0  0  0  0
   15.8586   33.9413   13.7231 C   0  0  0  0  0  0  0  0  0  0  0  0
   12.4327   32.9735   15.5039 C   0  0  0  0  0  0  0  0  0  0  0  0
   13.4894   33.5533   14.6854 C   0  0  0  0  0  0  0  0  0  0  0  0
   15.7743   35.6365   11.8271 N   0  0  0  0  0  0  0  0  0  0  0  0
   10.7984   31.8168   16.3802 N   0  0  0  0  0  0  0  0  0  0  0  0
   14.3391   35.1733   11.8138 C   0  0  0  0  0  0  0  0  0  0  0  0
  1 11  1  0
  1 13  1  0
  2 11  1  0
  2 14  1  0
  3 12  1  0
  3 15  1  0
  4  5  1  0
  4 10  2  0
  4 15  1  0
  5  7  1  0
  5 12  2  0
  6  9  2  0
  6 16  1  0
  7  8  2  0
  8  9  1  0
  9 13  1  0
 12 13  1  0
 14 16  1  0
M  END
>  <ID>  (1) 
conformer_0

$$$$
