
     RDKit          3D

 17 19  0  0  0  0  0  0  0  0999 V2000
   11.4019   35.7807   16.7604 C   0  0  0  0  0  0  0  0  0  0  0  0
   11.9151   32.3545   15.8283 C   0  0  0  0  0  0  0  0  0  0  0  0
   15.2782   35.0315   12.7331 C   0  0  0  0  0  0  0  0  0  0  0  0
   14.0281   34.3841   14.7945 N   0  0  0  0  0  0  0  0  0  0  0  0
    9.9776   33.7940   17.2248 C   0  0  0  0  0  0  0  0  0  0  0  0
   14.6885   35.4154   14.1367 C   0  0  0  0  0  0  0  0  0  0  0  0
   10.7964   31.6950   16.3278 C   0  0  0  0  0  0  0  0  0  0  0  0
   13.2594   36.9266   15.4024 N   0  0  0  0  0  0  0  0  0  0  0  0
   12.0349   33.6950   16.0245 C   0  0  0  0  0  0  0  0  0  0  0  0
   15.9492   33.6136   12.7836 C   0  0  0  0  0  0  0  0  0  0  0  0
    9.8273   32.4134   17.0143 C   0  0  0  0  0  0  0  0  0  0  0  0
   14.0858   34.9682   11.7244 C   0  0  0  0  0  0  0  0  0  0  0  0
   11.0555   34.4107   16.7323 C   0  0  0  0  0  0  0  0  0  0  0  0
   16.2433   35.9616   12.2816 O   0  0  0  0  0  0  0  0  0  0  0  0
   14.4140   36.7224   14.7296 C   0  0  0  0  0  0  0  0  0  0  0  0
   12.6351   35.9255   15.9730 C   0  0  0  0  0  0  0  0  0  0  0  0
   13.0393   34.6077   15.5930 C   0  0  0  0  0  0  0  0  0  0  0  0
  1 13  1  0
  1 16  1  0
  2  7  1  0
  2  9  2  0
  3  6  1  0
  3 10  1  0
  3 12  1  0
  3 14  1  0
  4  6  1  0
  4 17  2  0
  5 11  1  0
  5 13  2  0
  6 15  1  0
  7 11  2  0
  8 15  1  0
  8 16  2  0
  9 13  1  0
  9 17  1  0
 16 17  1  0
M  END
>  <ID>  (1) 
conformer_0

$$$$
