
     RDKit          3D

 14 15  0  0  0  0  0  0  0  0999 V2000
   10.0907   32.8584   17.0487 N   0  0  0  0  0  0  0  0  0  0  0  0
   12.0034   32.2464   15.8597 N   0  0  0  0  0  0  0  0  0  0  0  0
   13.1164   36.6015   16.0895 C   0  0  0  0  0  0  0  0  0  0  0  0
   15.0256   35.1259   13.2376 C   0  0  0  0  0  0  0  0  0  0  0  0
   14.7861   34.1868   12.3051 N   0  0  0  0  0  0  0  0  0  0  0  0
   10.8300   31.9542   16.4389 N   0  0  0  0  0  0  0  0  0  0  0  0
   13.5259   34.0606   15.0347 C   0  0  0  0  0  0  0  0  0  0  0  0
   14.2085   35.1889   14.4280 C   0  0  0  0  0  0  0  0  0  0  0  0
   14.1911   36.4678   15.1333 C   0  0  0  0  0  0  0  0  0  0  0  0
   10.5134   34.0928   17.0921 C   0  0  0  0  0  0  0  0  0  0  0  0
   11.6999   34.4727   16.5455 C   0  0  0  0  0  0  0  0  0  0  0  0
   12.4104   33.5172   15.8170 C   0  0  0  0  0  0  0  0  0  0  0  0
   15.9582   35.9747   13.1327 O   0  0  0  0  0  0  0  0  0  0  0  0
   12.1908   35.7650   16.6566 C   0  0  0  0  0  0  0  0  0  0  0  0
  1  6  1  0
  1 10  2  0
  2  6  1  0
  2 12  2  0
  3  9  1  0
  3 14  2  0
  4  5  1  0
  4  8  1  0
  4 13  2  0
  7  8  1  0
  7 12  1  0
  8  9  1  0
 10 11  1  0
 11 12  1  0
 11 14  1  0
M  END
>  <ID>  (1) 
conformer_0

$$$$
