
     RDKit          3D

 44 50  0  0  0  0  0  0  0  0999 V2000
   12.2636   33.9113   15.3328 C   0  0  0  0  0  0  0  0  0  0  0  0
   10.3475   33.5366   16.8188 C   0  0  0  0  0  0  0  0  0  0  0  0
   17.6108   34.1073   12.2499 C   0  0  0  0  0  0  0  0  0  0  0  0
   15.5094   32.1329   13.7678 C   0  0  0  0  0  0  0  0  0  0  0  0
    9.4166   32.9193   17.2985 O   0  0  0  0  0  0  0  0  0  0  0  0
   16.9104   36.5194   13.2776 C   0  0  0  0  0  0  0  0  0  0  0  0
   10.2753   31.0350   16.3248 N   0  0  0  0  0  0  0  0  0  0  0  0
   13.5812   36.4240   14.1981 N   0  0  0  0  0  0  0  0  0  0  0  0
   11.2517   31.6331   15.8108 C   0  0  0  0  0  0  0  0  0  0  0  0
   11.7691   29.5480   14.7156 C   0  0  0  0  0  0  0  0  0  0  0  0
   15.8656   30.8950   13.0195 C   0  0  0  0  0  0  0  0  0  0  0  0
   12.0857   30.8251   15.0367 C   0  0  0  0  0  0  0  0  0  0  0  0
   12.2416   35.2612   15.8356 C   0  0  0  0  0  0  0  0  0  0  0  0
   11.3771   33.0383   15.9834 C   0  0  0  0  0  0  0  0  0  0  0  0
   12.6814   37.5396   17.3628 C   0  0  0  0  0  0  0  0  0  0  0  0
   12.3606   37.8631   19.5350 C   0  0  0  0  0  0  0  0  0  0  0  0
   14.2675   32.2724   14.4614 C   0  0  0  0  0  0  0  0  0  0  0  0
   17.6378   38.6391   14.0792 C   0  0  0  0  0  0  0  0  0  0  0  0
   16.2170   28.4480   11.7127 C   0  0  0  0  0  0  0  0  0  0  0  0
   10.5186   34.7507   17.3351 N   0  0  0  0  0  0  0  0  0  0  0  0
   16.1590   34.1258    9.9536 C   0  0  0  0  0  0  0  0  0  0  0  0
   15.1249   35.1506   10.1895 C   0  0  0  0  0  0  0  0  0  0  0  0
   18.1004   38.0227   11.8031 N   0  0  0  0  0  0  0  0  0  0  0  0
   11.7695   36.4948   19.1860 C   0  0  0  0  0  0  0  0  0  0  0  0
   18.1868   38.8576   12.8360 C   0  0  0  0  0  0  0  0  0  0  0  0
   12.7774   29.0506   13.9597 C   0  0  0  0  0  0  0  0  0  0  0  0
   17.0397   30.6447   12.1939 C   0  0  0  0  0  0  0  0  0  0  0  0
   17.1688   29.4415   11.5966 C   0  0  0  0  0  0  0  0  0  0  0  0
   13.0575   37.5625   16.1061 N   0  0  0  0  0  0  0  0  0  0  0  0
   12.9805   36.4392   15.3573 C   0  0  0  0  0  0  0  0  0  0  0  0
   12.9792   38.4560   18.3123 C   0  0  0  0  0  0  0  0  0  0  0  0
   13.7275   30.0302   13.8354 C   0  0  0  0  0  0  0  0  0  0  0  0
   11.9738   36.4672   17.8683 C   0  0  0  0  0  0  0  0  0  0  0  0
   13.3201   31.1198   14.4791 N   0  0  0  0  0  0  0  0  0  0  0  0
   18.0815   31.6417   11.9915 C   0  0  0  0  0  0  0  0  0  0  0  0
   17.3838   36.0091   10.8432 N   0  0  0  0  0  0  0  0  0  0  0  0
   14.9211   29.8642   13.1078 C   0  0  0  0  0  0  0  0  0  0  0  0
   16.9880   37.4227   14.2811 C   0  0  0  0  0  0  0  0  0  0  0  0
   15.1504   28.6756   12.4690 C   0  0  0  0  0  0  0  0  0  0  0  0
   18.0369   32.8619   12.5935 N   0  0  0  0  0  0  0  0  0  0  0  0
   11.5976   35.4851   17.0251 C   0  0  0  0  0  0  0  0  0  0  0  0
   17.4358   36.7791   12.0163 C   0  0  0  0  0  0  0  0  0  0  0  0
   19.1669   31.4423   11.2674 N   0  0  0  0  0  0  0  0  0  0  0  0
   17.4497   34.5323   10.7743 C   0  0  0  0  0  0  0  0  0  0  0  0
  1 13  1  0
  1 14  1  0
  2  5  2  0
  2 14  1  0
  2 20  1  0
  3 40  1  0
  3 44  1  0
  4 11  2  0
  4 17  1  0
  6 38  2  0
  6 42  1  0
  7  9  2  0
  8 30  2  0
  9 12  1  0
  9 14  1  0
 10 12  1  0
 10 26  1  0
 11 27  1  0
 11 37  1  0
 12 34  1  0
 13 30  1  0
 13 41  1  0
 15 29  2  0
 15 31  1  0
 15 33  1  0
 16 24  1  0
 16 31  1  0
 17 34  1  0
 18 25  1  0
 18 38  1  0
 19 28  1  0
 19 39  2  0
 20 41  1  0
 21 22  1  0
 21 44  1  0
 23 25  2  0
 23 42  1  0
 24 33  1  0
 26 32  1  0
 27 28  2  0
 27 35  1  0
 29 30  1  0
 32 34  1  0
 32 37  2  0
 33 41  1  0
 35 40  1  0
 35 43  2  0
 36 42  2  3
 36 44  1  0
 37 39  1  0
M  END
>  <ID>  (1) 
conformer_0

$$$$
