
     RDKit          3D

 12 13  0  0  0  0  0  0  0  0999 V2000
   13.6697   35.9974   15.2920 C   0  0  0  0  0  0  0  0  0  0  0  0
    9.9306   32.6561   16.9113 N   0  0  0  0  0  0  0  0  0  0  0  0
   12.1675   33.9255   15.8684 C   0  0  0  0  0  0  0  0  0  0  0  0
   10.1929   33.9545   17.1952 C   0  0  0  0  0  0  0  0  0  0  0  0
   13.3315   34.6187   15.2610 C   0  0  0  0  0  0  0  0  0  0  0  0
   10.8341   31.9970   16.1203 C   0  0  0  0  0  0  0  0  0  0  0  0
   13.9117   34.0778   14.0516 C   0  0  0  0  0  0  0  0  0  0  0  0
   14.6933   35.2858   11.9901 O   0  0  0  0  0  0  0  0  0  0  0  0
   14.1710   36.3254   13.9766 N   0  0  0  0  0  0  0  0  0  0  0  0
   11.3010   34.5989   16.6925 C   0  0  0  0  0  0  0  0  0  0  0  0
   14.3946   35.1793   13.2451 C   0  0  0  0  0  0  0  0  0  0  0  0
   11.9444   32.5868   15.6127 C   0  0  0  0  0  0  0  0  0  0  0  0
  1  5  1  0
  1  9  1  0
  2  4  2  0
  2  6  1  0
  3  5  1  0
  3 10  2  0
  3 12  1  0
  4 10  1  0
  5  7  1  0
  6 12  2  0
  7 11  1  0
  8 11  2  0
  9 11  1  0
M  END
>  <ID>  (1) 
conformer_0

$$$$
