
     RDKit          3D

 15 16  0  0  0  0  0  0  0  0999 V2000
   10.1463   32.0209   16.7520 Cl  0  0  0  0  0  0  0  0  0  0  0  0
   12.1942   35.5031   16.4146 C   0  0  0  0  0  0  0  0  0  0  0  0
   14.1012   36.8653   15.5043 C   0  0  0  0  0  0  0  0  0  0  0  0
   13.2713   35.6634   15.5968 C   0  0  0  0  0  0  0  0  0  0  0  0
   13.7500   34.7420   14.6211 C   0  0  0  0  0  0  0  0  0  0  0  0
   13.2777   33.4398   14.6450 C   0  0  0  0  0  0  0  0  0  0  0  0
   11.2556   34.5225   16.7169 C   0  0  0  0  0  0  0  0  0  0  0  0
   14.1145   34.6557   11.5189 O   0  0  0  0  0  0  0  0  0  0  0  0
   14.6892   35.4019   13.7577 C   0  0  0  0  0  0  0  0  0  0  0  0
   10.1942   34.8243   17.5098 O   0  0  0  0  0  0  0  0  0  0  0  0
   11.3181   33.1597   16.2112 C   0  0  0  0  0  0  0  0  0  0  0  0
   16.0769   35.7380   11.7603 O   0  0  0  0  0  0  0  0  0  0  0  0
   15.0701   35.1862   12.3465 C   0  0  0  0  0  0  0  0  0  0  0  0
   12.2986   32.7778   15.3385 C   0  0  0  0  0  0  0  0  0  0  0  0
   14.9863   36.7114   14.4071 C   0  0  0  0  0  0  0  0  0  0  0  0
  1 11  1  0
  2  4  1  0
  2  7  2  0
  3  4  1  0
  3 15  1  0
  4  5  2  0
  5  6  1  0
  5  9  1  0
  6 14  1  0
  7 10  1  0
  7 11  1  0
  8 13  2  0
  9 13  1  0
  9 15  1  0
 11 14  2  0
 12 13  1  0
M  END
>  <ID>  (1) 
conformer_0

$$$$
