
     RDKit          3D

 16 17  0  0  0  0  0  0  0  0999 V2000
   11.3018   35.5971   17.1352 C   0  0  0  0  0  0  0  0  0  0  0  0
   16.6928   34.5301   11.3190 C   0  0  0  0  0  0  0  0  0  0  0  0
   10.4004   34.6281   17.3505 N   0  0  0  0  0  0  0  0  0  0  0  0
   15.3313   34.4762   13.3758 C   0  0  0  0  0  0  0  0  0  0  0  0
    9.6935   32.4861   17.1348 O   0  0  0  0  0  0  0  0  0  0  0  0
   12.2981   35.3994   16.2765 C   0  0  0  0  0  0  0  0  0  0  0  0
   15.3411   34.9087   11.9167 C   0  0  0  0  0  0  0  0  0  0  0  0
   17.4940   33.2215   13.2243 C   0  0  0  0  0  0  0  0  0  0  0  0
   14.0667   34.6631   14.0474 C   0  0  0  0  0  0  0  0  0  0  0  0
   10.4674   33.4097   16.8097 C   0  0  0  0  0  0  0  0  0  0  0  0
   13.6229   33.7474   15.0249 C   0  0  0  0  0  0  0  0  0  0  0  0
   12.4173   34.1236   15.7082 C   0  0  0  0  0  0  0  0  0  0  0  0
   16.1969   33.3831   13.9292 C   0  0  0  0  0  0  0  0  0  0  0  0
   13.1072   35.5694   13.4199 C   0  0  0  0  0  0  0  0  0  0  0  0
   11.4690   33.1969   15.9268 N   0  0  0  0  0  0  0  0  0  0  0  0
   17.7633   34.4545   12.3959 C   0  0  0  0  0  0  0  0  0  0  0  0
  1  3  2  0
  1  6  1  0
  2  7  1  0
  2 16  1  0
  3 10  1  0
  4  7  1  0
  4  9  1  0
  4 13  1  0
  5 10  2  0
  6 12  2  0
  8 13  1  0
  8 16  1  0
  9 11  1  0
  9 14  1  0
 10 15  1  0
 11 12  1  0
 12 15  1  0
M  END
>  <ID>  (1) 
conformer_0

$$$$
