
     RDKit          3D

 12 12  0  0  0  0  0  0  0  0999 V2000
   12.8496   34.6056   14.6790 C   0  0  0  0  0  0  0  0  0  0  0  0
   12.9667   35.7820   11.9259 C   0  0  0  0  0  0  0  0  0  0  0  0
   14.1538   35.6815   12.8622 N   0  0  0  0  0  0  0  0  0  0  0  0
   10.9333   34.5423   16.9290 O   0  0  0  0  0  0  0  0  0  0  0  0
   14.7521   33.5066   13.7640 C   0  0  0  0  0  0  0  0  0  0  0  0
   11.2991   33.4420   16.3734 C   0  0  0  0  0  0  0  0  0  0  0  0
   15.3754   35.5063   12.0450 C   0  0  0  0  0  0  0  0  0  0  0  0
   13.3042   32.3385   15.3465 C   0  0  0  0  0  0  0  0  0  0  0  0
   13.9105   34.6047   13.7951 C   0  0  0  0  0  0  0  0  0  0  0  0
   10.5934   32.3228   16.5598 O   0  0  0  0  0  0  0  0  0  0  0  0
   12.4897   33.4499   15.4600 C   0  0  0  0  0  0  0  0  0  0  0  0
   14.4360   32.3676   14.5160 C   0  0  0  0  0  0  0  0  0  0  0  0
  1  9  2  0
  1 11  1  0
  2  3  1  0
  3  7  1  0
  3  9  1  0
  4  6  2  0
  5  9  1  0
  5 12  2  0
  6 10  1  0
  6 11  1  0
  8 11  2  0
  8 12  1  0
M  END
>  <ID>  (1) 
conformer_0

$$$$
