
     RDKit          3D

 10 11  0  0  0  0  0  0  0  0999 V2000
   11.2790   34.1004   17.2706 C   0  0  0  0  0  0  0  0  0  0  0  0
   11.1636   32.8840   16.6563 C   0  0  0  0  0  0  0  0  0  0  0  0
   12.0277   35.0995   16.7839 N   0  0  0  0  0  0  0  0  0  0  0  0
   13.6870   35.3009   13.6283 N   0  0  0  0  0  0  0  0  0  0  0  0
   13.4485   35.8802   14.8000 C   0  0  0  0  0  0  0  0  0  0  0  0
   12.4896   33.7692   14.8618 C   0  0  0  0  0  0  0  0  0  0  0  0
   12.6170   34.9615   15.5946 C   0  0  0  0  0  0  0  0  0  0  0  0
   13.0940   33.8949   13.6313 N   0  0  0  0  0  0  0  0  0  0  0  0
   13.8658   37.0682   15.2137 N   0  0  0  0  0  0  0  0  0  0  0  0
   11.8053   32.6984   15.4415 C   0  0  0  0  0  0  0  0  0  0  0  0
  1  2  2  0
  1  3  1  0
  2 10  1  0
  3  7  2  0
  4  5  1  0
  4  8  1  0
  5  7  1  0
  5  9  2  0
  6  7  1  0
  6  8  1  0
  6 10  2  0
M  END
>  <ID>  (1) 
conformer_0

$$$$
