
     RDKit          3D

 17 19  0  0  0  0  0  0  0  0999 V2000
   16.2467   31.7188   14.5347 Cl  0  0  0  0  0  0  0  0  0  0  0  0
   15.5441   35.1014   12.4908 C   0  0  0  0  0  0  0  0  0  0  0  0
    9.8452   34.6839   17.4460 N   0  0  0  0  0  0  0  0  0  0  0  0
   13.0630   35.6730   15.0048 C   0  0  0  0  0  0  0  0  0  0  0  0
   10.1836   32.3744   16.7264 N   0  0  0  0  0  0  0  0  0  0  0  0
   14.2521   33.5398   14.3764 C   0  0  0  0  0  0  0  0  0  0  0  0
   16.1322   33.8533   12.8751 C   0  0  0  0  0  0  0  0  0  0  0  0
   12.1804   35.2448   15.8703 N   0  0  0  0  0  0  0  0  0  0  0  0
   11.2357   31.7376   16.0255 C   0  0  0  0  0  0  0  0  0  0  0  0
   13.9395   34.9040   14.1631 C   0  0  0  0  0  0  0  0  0  0  0  0
   15.4858   33.1388   13.8599 C   0  0  0  0  0  0  0  0  0  0  0  0
   12.1998   32.7461   15.6362 C   0  0  0  0  0  0  0  0  0  0  0  0
   11.2850   30.3221   15.7244 C   0  0  0  0  0  0  0  0  0  0  0  0
   11.7072   33.9993   16.0718 C   0  0  0  0  0  0  0  0  0  0  0  0
   14.4972   35.6085   13.1435 N   0  0  0  0  0  0  0  0  0  0  0  0
   13.4171   32.5647   14.9986 C   0  0  0  0  0  0  0  0  0  0  0  0
   10.5124   33.7464   16.8064 C   0  0  0  0  0  0  0  0  0  0  0  0
  1 11  1  0
  2  7  1  0
  2 15  2  0
  3 17  2  0
  4  8  2  0
  4 10  1  0
  5  9  1  0
  5 17  1  0
  6 10  1  0
  6 11  1  0
  6 16  2  0
  7 11  2  0
  8 14  1  0
  9 12  1  0
  9 13  1  0
 10 15  1  0
 12 14  2  0
 12 16  1  0
 14 17  1  0
M  END
>  <ID>  (1) 
conformer_0

$$$$
