
     RDKit          3D

 14 15  0  0  0  0  0  0  0  0999 V2000
   13.8066   35.5515   11.7304 N   0  0  0  0  0  0  0  0  0  0  0  0
   10.9299   35.1180   17.1081 N   0  0  0  0  0  0  0  0  0  0  0  0
   11.6162   31.0405   15.8322 C   0  0  0  0  0  0  0  0  0  0  0  0
   15.3734   34.0266   12.4763 N   0  0  0  0  0  0  0  0  0  0  0  0
   11.9396   34.9657   16.2349 C   0  0  0  0  0  0  0  0  0  0  0  0
   13.0256   33.6267   14.5418 C   0  0  0  0  0  0  0  0  0  0  0  0
   13.6864   34.7921   14.0258 C   0  0  0  0  0  0  0  0  0  0  0  0
   11.3206   32.6042   16.1521 C   0  0  0  0  0  0  0  0  0  0  0  0
   13.6205   35.9683   14.8155 C   0  0  0  0  0  0  0  0  0  0  0  0
   10.1519   32.9454   16.8292 N   0  0  0  0  0  0  0  0  0  0  0  0
   12.7603   36.0556   15.9130 C   0  0  0  0  0  0  0  0  0  0  0  0
   12.1254   33.6998   15.6301 C   0  0  0  0  0  0  0  0  0  0  0  0
   14.3519   34.8085   12.7169 C   0  0  0  0  0  0  0  0  0  0  0  0
    9.9574   34.2287   17.2086 C   0  0  0  0  0  0  0  0  0  0  0  0
  1 13  2  0
  2  5  2  0
  2 14  1  0
  3  8  1  0
  4 13  1  0
  5 11  1  0
  5 12  1  0
  6  7  1  0
  6 12  2  0
  7  9  1  0
  7 13  1  0
  8 10  1  0
  8 12  1  0
  9 11  2  0
 10 14  2  0
M  END
>  <ID>  (1) 
conformer_0

$$$$
