
     RDKit          3D

 25 28  0  0  0  0  0  0  0  0999 V2000
   10.7455   32.1165   16.4440 C   0  0  0  0  0  0  0  0  0  0  0  0
   13.4567   37.1089   15.4948 C   0  0  0  0  0  0  0  0  0  0  0  0
   13.7402   34.9201   15.1622 C   0  0  0  0  0  0  0  0  0  0  0  0
    9.7167   33.9836   17.3186 C   0  0  0  0  0  0  0  0  0  0  0  0
   11.7577   32.9469   16.0681 C   0  0  0  0  0  0  0  0  0  0  0  0
   14.1655   33.6234   14.9239 C   0  0  0  0  0  0  0  0  0  0  0  0
   17.2678   34.6814   11.1156 N   0  0  0  0  0  0  0  0  0  0  0  0
   17.6578   37.2850   13.4431 C   0  0  0  0  0  0  0  0  0  0  0  0
   17.1238   36.6766   12.2879 N   0  0  0  0  0  0  0  0  0  0  0  0
   15.7570   32.8772   11.5403 C   0  0  0  0  0  0  0  0  0  0  0  0
   14.2184   36.2191   14.8314 C   0  0  0  0  0  0  0  0  0  0  0  0
   16.7739   33.4386   10.6404 C   0  0  0  0  0  0  0  0  0  0  0  0
   15.1997   33.6630   12.5475 N   0  0  0  0  0  0  0  0  0  0  0  0
   10.7656   34.8555   17.0054 N   0  0  0  0  0  0  0  0  0  0  0  0
   11.7421   34.2274   16.3352 C   0  0  0  0  0  0  0  0  0  0  0  0
   10.8919   30.6952   16.1598 C   0  0  0  0  0  0  0  0  0  0  0  0
   15.5867   34.9979   13.0598 C   0  0  0  0  0  0  0  0  0  0  0  0
   18.0997   35.5409   10.2350 C   0  0  0  0  0  0  0  0  0  0  0  0
   11.1316   36.2286   17.0913 C   0  0  0  0  0  0  0  0  0  0  0  0
   16.7824   35.3508   12.2155 C   0  0  0  0  0  0  0  0  0  0  0  0
    9.6785   32.7087   17.0560 N   0  0  0  0  0  0  0  0  0  0  0  0
   15.2843   36.1782   13.9270 C   0  0  0  0  0  0  0  0  0  0  0  0
   11.9120   30.4459   15.0498 C   0  0  0  0  0  0  0  0  0  0  0  0
   12.7128   35.1499   15.9639 C   0  0  0  0  0  0  0  0  0  0  0  0
   12.4038   36.4593   16.2668 N   0  0  0  0  0  0  0  0  0  0  0  0
  1  5  1  0
  1 16  1  0
  1 21  1  0
  2 11  1  0
  2 25  1  0
  3  6  1  0
  3 11  2  0
  3 24  1  0
  4 14  1  0
  4 21  2  0
  5 15  2  0
  7 12  1  0
  7 18  1  0
  7 20  1  0
  8  9  1  0
  9 20  1  0
 10 12  1  0
 10 13  2  0
 11 22  1  0
 13 17  1  0
 14 15  1  0
 14 19  1  0
 15 24  1  0
 16 23  1  0
 17 20  2  0
 17 22  1  0
 19 25  1  0
 24 25  1  0
M  END
>  <ID>  (1) 
conformer_0

$$$$
