
     RDKit          3D

 12 13  0  0  0  0  0  0  0  0999 V2000
   12.8683   33.8937   14.7851 C   0  0  0  0  0  0  0  0  0  0  0  0
   14.3764   35.2731   11.6801 C   0  0  0  0  0  0  0  0  0  0  0  0
   13.3256   36.1805   15.1526 N   0  0  0  0  0  0  0  0  0  0  0  0
   11.5457   35.0197   16.4787 C   0  0  0  0  0  0  0  0  0  0  0  0
    9.7547   33.8033   17.4618 O   0  0  0  0  0  0  0  0  0  0  0  0
   11.3216   32.6606   16.1275 C   0  0  0  0  0  0  0  0  0  0  0  0
   12.3264   32.6555   15.1880 C   0  0  0  0  0  0  0  0  0  0  0  0
   13.6141   33.9923   13.6808 N   0  0  0  0  0  0  0  0  0  0  0  0
   10.8652   33.8391   16.7178 C   0  0  0  0  0  0  0  0  0  0  0  0
   14.0161   35.1762   13.1820 C   0  0  0  0  0  0  0  0  0  0  0  0
   14.0433   36.2611   14.0055 N   0  0  0  0  0  0  0  0  0  0  0  0
   12.5675   35.0531   15.5035 C   0  0  0  0  0  0  0  0  0  0  0  0
  1  7  1  0
  1  8  2  0
  1 12  1  0
  2 10  1  0
  3 11  2  0
  3 12  1  0
  4  9  2  0
  4 12  1  0
  5  9  1  0
  6  7  2  0
  6  9  1  0
  8 10  1  0
 10 11  1  0
M  END
>  <ID>  (1) 
conformer_0

$$$$
