
     RDKit          3D

 25 27  0  0  0  0  0  0  0  0999 V2000
   24.4037    9.6143  -14.2155 C   0  0  0  0  0  0  0  0  0  0  0  0
   23.0253   14.0537  -13.0203 O   0  0  0  0  0  0  0  0  0  0  0  0
   23.8432    8.5102  -11.0347 O   0  0  0  0  0  0  0  0  0  0  0  0
   20.9170    9.0576  -11.3604 C   0  0  0  0  0  0  0  0  0  0  0  0
   19.4435   11.5838  -11.6466 C   0  0  0  0  0  0  0  0  0  0  0  0
   20.9387   11.0923  -15.0147 C   0  0  0  0  0  0  0  0  0  0  0  0
   21.6225   12.3439   -6.8249 C   0  0  0  0  0  0  0  0  0  0  0  0
   21.7439   12.9337   -8.0975 C   0  0  0  0  0  0  0  0  0  0  0  0
   26.5639    8.7012  -14.5654 O   0  0  0  0  0  0  0  0  0  0  0  0
   20.4408   10.5009   -7.7944 C   0  0  0  0  0  0  0  0  0  0  0  0
   22.1709   10.1286  -13.1924 C   0  0  0  0  0  0  0  0  0  0  0  0
   20.5344   11.1466   -8.9957 C   0  0  0  0  0  0  0  0  0  0  0  0
   23.3540    9.4154  -13.2504 C   0  0  0  0  0  0  0  0  0  0  0  0
   21.5238   10.2693  -11.9294 C   0  0  0  0  0  0  0  0  0  0  0  0
   20.7277   14.0683  -11.6652 C   0  0  0  0  0  0  0  0  0  0  0  0
   23.5362    8.2202  -12.4243 C   0  0  0  0  0  0  0  0  0  0  0  0
   21.9174   11.2928  -13.9333 C   0  0  0  0  0  0  0  0  0  0  0  0
   21.6111   13.7642  -12.9415 C   0  0  0  0  0  0  0  0  0  0  0  0
   25.4040    8.4881  -13.9615 C   0  0  0  0  0  0  0  0  0  0  0  0
   21.1801   12.3100   -9.2263 C   0  0  0  0  0  0  0  0  0  0  0  0
   22.4971   13.8515  -10.4109 O   0  0  0  0  0  0  0  0  0  0  0  0
   21.4130   12.2844  -13.0247 C   0  0  0  0  0  0  0  0  0  0  0  0
   21.0326   11.6703  -11.7101 C   0  0  0  0  0  0  0  0  0  0  0  0
   21.3314   12.9410  -10.6520 C   0  0  0  0  0  0  0  0  0  0  0  0
   20.9980   11.1011   -6.6890 C   0  0  0  0  0  0  0  0  0  0  0  0
  1 13  1  0
  1 19  1  0
  2 18  1  0
  3 16  1  0
  4 14  1  0
  5 23  1  0
  6 17  1  0
  7  8  2  0
  7 25  1  0
  8 20  1  0
  9 19  1  0
 10 12  1  0
 10 25  2  0
 11 13  1  0
 11 14  1  0
 11 17  1  0
 12 20  2  0
 13 16  1  0
 14 23  1  0
 15 18  1  0
 15 24  1  0
 17 22  1  0
 18 22  1  0
 20 24  1  0
 21 24  1  0
 22 23  1  0
 23 24  1  0
M  END
>  <ID>  (1) 
conformer_0

$$$$
