
     RDKit          3D

 21 22  0  0  0  0  0  0  0  0999 V2000
   21.3505   12.6068   -6.5474 O   0  0  0  0  0  0  0  0  0  0  0  0
   22.4289   13.1237  -12.8528 C   0  0  0  0  0  0  0  0  0  0  0  0
   23.4874    8.8696  -14.8861 C   0  0  0  0  0  0  0  0  0  0  0  0
   25.9386    9.3160  -14.9473 C   0  0  0  0  0  0  0  0  0  0  0  0
   20.8941    9.9487  -10.4816 C   0  0  0  0  0  0  0  0  0  0  0  0
   21.2432   10.9666  -11.3180 C   0  0  0  0  0  0  0  0  0  0  0  0
   21.5108    9.3037  -13.2905 C   0  0  0  0  0  0  0  0  0  0  0  0
   21.3793   12.2662  -10.7536 C   0  0  0  0  0  0  0  0  0  0  0  0
   21.3594    9.6794  -15.7211 O   0  0  0  0  0  0  0  0  0  0  0  0
   21.9941   11.8113  -13.5505 C   0  0  0  0  0  0  0  0  0  0  0  0
   21.4209   10.7094  -12.7731 C   0  0  0  0  0  0  0  0  0  0  0  0
   21.0840   11.3725   -8.5001 C   0  0  0  0  0  0  0  0  0  0  0  0
   25.8914   10.6485  -15.6270 N   0  0  0  0  0  0  0  0  0  0  0  0
   21.0961   11.5029   -7.0399 C   0  0  0  0  0  0  0  0  0  0  0  0
   21.3474   12.4358   -9.3695 C   0  0  0  0  0  0  0  0  0  0  0  0
   20.8152   10.1647   -9.1050 C   0  0  0  0  0  0  0  0  0  0  0  0
   21.5140   13.4723  -11.6314 C   0  0  0  0  0  0  0  0  0  0  0  0
   24.4191    9.1558  -12.5427 C   0  0  0  0  0  0  0  0  0  0  0  0
   20.8988   10.4394   -6.3603 O   0  0  0  0  0  0  0  0  0  0  0  0
   24.7047    9.1899  -14.0739 C   0  0  0  0  0  0  0  0  0  0  0  0
   22.0625    9.1514  -14.6974 C   0  0  0  0  0  0  0  0  0  0  0  0
  1 14  2  0
  2 10  1  0
  2 17  1  0
  3 20  1  0
  3 21  1  0
  4 13  1  0
  4 20  1  0
  5  6  1  0
  5 16  2  0
  6  8  2  0
  6 11  1  0
  7 11  2  3
  7 21  1  0
  8 15  1  0
  8 17  1  0
  9 21  1  0
 10 11  1  0
 12 14  1  0
 12 15  2  0
 12 16  1  0
 14 19  1  0
 18 20  1  0
M  END
>  <ID>  (1) 
conformer_0

$$$$
