
     RDKit          3D

 25 26  0  0  0  0  0  0  0  0999 V2000
   20.9553   10.9731  -11.1920 C   0  0  0  0  0  0  0  0  0  0  0  0
   23.8246    8.7745  -11.6435 C   0  0  0  0  0  0  0  0  0  0  0  0
   20.7855   13.3091  -13.6070 O   0  0  0  0  0  0  0  0  0  0  0  0
   24.7683    8.5862  -12.6511 C   0  0  0  0  0  0  0  0  0  0  0  0
   22.9435   13.4235  -12.8525 O   0  0  0  0  0  0  0  0  0  0  0  0
   26.5101    8.1907  -14.8799 O   0  0  0  0  0  0  0  0  0  0  0  0
   21.1639    9.6147   -7.5073 Cl  0  0  0  0  0  0  0  0  0  0  0  0
   21.8149   15.6083  -11.1135 O   0  0  0  0  0  0  0  0  0  0  0  0
   21.6386    9.4822  -10.8797 N   0  0  0  0  0  0  0  0  0  0  0  0
   21.6789   13.8633  -12.8382 C   0  0  0  0  0  0  0  0  0  0  0  0
   20.3355   12.3797  -10.9570 C   0  0  0  0  0  0  0  0  0  0  0  0
   21.2780   14.4602  -11.5169 C   0  0  0  0  0  0  0  0  0  0  0  0
   21.1875   10.3075  -10.1195 C   0  0  0  0  0  0  0  0  0  0  0  0
   20.9768   12.1209   -8.2738 C   0  0  0  0  0  0  0  0  0  0  0  0
   25.3091    8.5383  -15.0968 C   0  0  0  0  0  0  0  0  0  0  0  0
   22.5556    9.2921  -11.9320 C   0  0  0  0  0  0  0  0  0  0  0  0
   22.0323   14.2128   -8.3232 O   0  0  0  0  0  0  0  0  0  0  0  0
   22.2313    9.6104  -13.2592 C   0  0  0  0  0  0  0  0  0  0  0  0
   24.8543    8.5589  -16.2708 O   0  0  0  0  0  0  0  0  0  0  0  0
   21.5053   13.2777   -8.9761 C   0  0  0  0  0  0  0  0  0  0  0  0
   20.9076   10.0412  -13.7636 C   0  0  0  0  0  0  0  0  0  0  0  0
   24.3998    8.8824  -13.9891 C   0  0  0  0  0  0  0  0  0  0  0  0
   23.1704    9.4321  -14.2561 C   0  0  0  0  0  0  0  0  0  0  0  0
   21.3859   13.3691  -10.4452 C   0  0  0  0  0  0  0  0  0  0  0  0
   21.0721   10.7350   -8.8421 C   0  0  0  0  0  0  0  0  0  0  0  0
  1 11  1  0
  1 13  1  0
  2  4  2  0
  2 16  1  0
  3 10  2  0
  4 22  1  0
  5 10  1  0
  6 15  2  0
  7 25  1  0
  8 12  1  0
  9 13  1  0
  9 16  1  0
 10 12  1  0
 11 24  1  0
 12 24  1  0
 13 25  1  0
 14 20  1  0
 14 25  1  0
 15 19  1  0
 15 22  1  0
 16 18  2  0
 17 20  2  0
 18 21  1  0
 18 23  1  0
 20 24  1  0
 22 23  2  0
M  END
>  <ID>  (1) 
conformer_0

$$$$
