
     RDKit          3D

 18 19  0  0  0  0  0  0  0  0999 V2000
   20.6208   11.3910  -10.9201 C   0  0  0  0  0  0  0  0  0  0  0  0
   21.9822   13.1881  -10.0753 C   0  0  0  0  0  0  0  0  0  0  0  0
   22.0436   14.1520   -9.1198 O   0  0  0  0  0  0  0  0  0  0  0  0
   23.5998   10.5778  -13.8286 C   0  0  0  0  0  0  0  0  0  0  0  0
   25.0534    8.8792  -14.8067 N   0  0  0  0  0  0  0  0  0  0  0  0
   19.2622   10.7216  -10.4479 C   0  0  0  0  0  0  0  0  0  0  0  0
   22.3440   12.4098  -12.4574 O   0  0  0  0  0  0  0  0  0  0  0  0
   23.6208    8.4312  -10.4039 O   0  0  0  0  0  0  0  0  0  0  0  0
   23.5998    9.0954  -11.4715 C   0  0  0  0  0  0  0  0  0  0  0  0
   19.5090   11.3308  -11.7476 C   0  0  0  0  0  0  0  0  0  0  0  0
   24.3528    9.3754  -13.7229 C   0  0  0  0  0  0  0  0  0  0  0  0
   22.7906   10.2181  -11.6092 N   0  0  0  0  0  0  0  0  0  0  0  0
   20.6762   12.5311  -10.0153 O   0  0  0  0  0  0  0  0  0  0  0  0
   21.7658   10.5377  -10.6610 C   0  0  0  0  0  0  0  0  0  0  0  0
   21.9940   13.6625  -11.5916 C   0  0  0  0  0  0  0  0  0  0  0  0
   21.8589   15.1364  -11.4475 O   0  0  0  0  0  0  0  0  0  0  0  0
   24.4003    8.6559  -12.5394 C   0  0  0  0  0  0  0  0  0  0  0  0
   22.9058   11.0544  -12.6852 C   0  0  0  0  0  0  0  0  0  0  0  0
  1 10  1  0
  1 13  1  0
  1 14  1  0
  2  3  1  0
  2 13  1  0
  2 15  1  0
  4 11  1  0
  4 18  2  0
  5 11  1  0
  6 10  1  0
  7 15  1  0
  7 18  1  0
  8  9  2  0
  9 12  1  0
  9 17  1  0
 11 17  2  0
 12 14  1  0
 12 18  1  0
 15 16  2  0
M  END
>  <ID>  (1) 
conformer_0

$$$$
