
     RDKit          3D

 23 24  0  0  0  0  0  0  0  0999 V2000
   20.9393   11.5475   -9.1233 C   0  0  0  0  0  0  0  0  0  0  0  0
   22.0502   15.5507  -10.8576 O   0  0  0  0  0  0  0  0  0  0  0  0
   24.3029    5.7945  -15.4695 C   0  0  0  0  0  0  0  0  0  0  0  0
   21.3458   12.5593   -7.0157 N   0  0  0  0  0  0  0  0  0  0  0  0
   21.2396   12.6743   -8.3823 C   0  0  0  0  0  0  0  0  0  0  0  0
   24.2429    9.1385  -13.6985 C   0  0  0  0  0  0  0  0  0  0  0  0
   22.9292    7.1734  -13.3629 C   0  0  0  0  0  0  0  0  0  0  0  0
   20.7806   10.3608   -8.4673 C   0  0  0  0  0  0  0  0  0  0  0  0
   21.1811   11.3865   -6.4770 C   0  0  0  0  0  0  0  0  0  0  0  0
   24.8982    6.9948  -14.8907 C   0  0  0  0  0  0  0  0  0  0  0  0
   26.0932    7.2915  -15.1669 O   0  0  0  0  0  0  0  0  0  0  0  0
   21.4217   14.0181   -9.0899 C   0  0  0  0  0  0  0  0  0  0  0  0
   24.0233    7.7844  -13.9713 C   0  0  0  0  0  0  0  0  0  0  0  0
   20.5007   10.4608  -11.2454 C   0  0  0  0  0  0  0  0  0  0  0  0
   21.7815   12.6223  -11.2172 C   0  0  0  0  0  0  0  0  0  0  0  0
   20.7233   11.7592  -10.6006 C   0  0  0  0  0  0  0  0  0  0  0  0
   23.4413    9.8290  -12.7221 C   0  0  0  0  0  0  0  0  0  0  0  0
   21.6428    9.6217  -10.9918 O   0  0  0  0  0  0  0  0  0  0  0  0
   21.5446   14.3891  -12.6258 N   0  0  0  0  0  0  0  0  0  0  0  0
   22.1575    7.8143  -12.4139 C   0  0  0  0  0  0  0  0  0  0  0  0
   20.8800   10.2595   -7.1033 N   0  0  0  0  0  0  0  0  0  0  0  0
   21.6790   14.1983  -11.0055 C   0  0  0  0  0  0  0  0  0  0  0  0
   22.4133    9.1133  -12.0505 C   0  0  0  0  0  0  0  0  0  0  0  0
  1  5  1  0
  1  8  2  0
  1 16  1  0
  2 22  1  0
  3 10  1  0
  4  5  1  0
  4  9  2  0
  5 12  1  0
  6 13  2  0
  6 17  1  0
  7 13  1  0
  7 20  2  0
  8 21  1  0
  9 21  1  0
 10 11  2  0
 10 13  1  0
 14 16  1  0
 14 18  1  0
 15 16  1  0
 15 22  1  0
 17 23  2  0
 18 23  1  0
 19 22  1  0
 20 23  1  0
M  END
>  <ID>  (1) 
conformer_0

$$$$
