
     RDKit          3D

 25 27  0  0  0  0  0  0  0  0999 V2000
   24.6967    9.8639  -16.0191 C   0  0  0  0  0  0  0  0  0  0  0  0
   23.5815   13.7328  -13.1863 O   0  0  0  0  0  0  0  0  0  0  0  0
   21.5297   13.3127   -8.9643 C   0  0  0  0  0  0  0  0  0  0  0  0
   18.9054   10.5756  -11.4739 C   0  0  0  0  0  0  0  0  0  0  0  0
   20.7983    9.8357   -7.3204 C   0  0  0  0  0  0  0  0  0  0  0  0
   22.9998    9.6246  -13.9513 C   0  0  0  0  0  0  0  0  0  0  0  0
   22.8856   10.9169  -14.6634 C   0  0  0  0  0  0  0  0  0  0  0  0
   20.1314   10.9353  -10.6632 C   0  0  0  0  0  0  0  0  0  0  0  0
   25.3800    9.3439  -14.7619 C   0  0  0  0  0  0  0  0  0  0  0  0
   22.0927   12.0941  -14.1673 N   0  0  0  0  0  0  0  0  0  0  0  0
   22.2723   13.2742  -12.8488 S   0  0  0  0  0  4  0  0  0  0  0  0
   21.8538   12.3866  -11.6511 O   0  0  0  0  0  0  0  0  0  0  0  0
   20.9274   10.7079   -8.3770 C   0  0  0  0  0  0  0  0  0  0  0  0
   24.0281   11.1979  -15.6451 C   0  0  0  0  0  0  0  0  0  0  0  0
   22.2385    8.7112  -11.6461 C   0  0  0  0  0  0  0  0  0  0  0  0
   20.6640   12.2208  -10.9529 C   0  0  0  0  0  0  0  0  0  0  0  0
   21.6999   12.4071   -6.7648 C   0  0  0  0  0  0  0  0  0  0  0  0
   21.0869   10.2382   -6.0372 C   0  0  0  0  0  0  0  0  0  0  0  0
   21.5537   11.4930   -5.7782 C   0  0  0  0  0  0  0  0  0  0  0  0
   24.4439    9.3340  -13.5209 C   0  0  0  0  0  0  0  0  0  0  0  0
   20.4384   13.4188  -10.0393 C   0  0  0  0  0  0  0  0  0  0  0  0
   20.5958   10.2095   -9.6377 O   0  0  0  0  0  0  0  0  0  0  0  0
   21.5036   14.6704  -12.5303 N   0  0  0  0  0  0  0  0  0  0  0  0
   21.8356    9.1863  -13.0925 C   0  0  0  0  0  0  0  0  0  0  0  0
   21.3614   12.0629   -8.0863 C   0  0  0  0  0  0  0  0  0  0  0  0
  1  9  1  0
  1 14  1  0
  2 11  1  0
  3 21  1  0
  3 25  1  0
  4  8  1  0
  5 13  2  0
  5 18  1  0
  6  7  1  0
  6 20  1  0
  6 24  1  0
  7 10  1  0
  7 14  1  0
  8 16  1  0
  8 22  1  0
  9 20  1  0
 10 11  1  0
 11 12  1  0
 11 23  1  0
 12 16  1  0
 13 22  1  0
 13 25  1  0
 15 24  1  0
 16 21  1  0
 17 19  1  0
 17 25  2  0
 18 19  2  0
M  END
>  <ID>  (1) 
conformer_0

$$$$
