
     RDKit          3D

 25 28  0  0  0  0  0  0  0  0999 V2000
   20.0643   10.1240  -10.2205 C   0  0  0  0  0  0  0  0  0  0  0  0
   23.8620    7.3812  -13.5086 C   0  0  0  0  0  0  0  0  0  0  0  0
   21.9677    8.6990  -12.8468 C   0  0  0  0  0  0  0  0  0  0  0  0
   21.7476   11.7034  -10.9277 C   0  0  0  0  0  0  0  0  0  0  0  0
   24.4805    8.5523  -13.9640 C   0  0  0  0  0  0  0  0  0  0  0  0
   21.4379   13.9620  -15.9367 C   0  0  0  0  0  0  0  0  0  0  0  0
   22.5961    9.9019  -13.3193 C   0  0  0  0  0  0  0  0  0  0  0  0
   22.7394   14.1918  -13.7101 C   0  0  0  0  0  0  0  0  0  0  0  0
   20.9731   12.7424  -16.7156 C   0  0  0  0  0  0  0  0  0  0  0  0
   21.3269   11.7345   -7.0800 C   0  0  0  0  0  0  0  0  0  0  0  0
   20.7958   10.7363  -11.1321 C   0  0  0  0  0  0  0  0  0  0  0  0
   21.1863   11.4686   -8.5359 C   0  0  0  0  0  0  0  0  0  0  0  0
   21.6907   13.5038  -14.5493 C   0  0  0  0  0  0  0  0  0  0  0  0
   20.2532   10.5121   -8.9112 C   0  0  0  0  0  0  0  0  0  0  0  0
   23.2444   13.1894  -12.7116 O   0  0  0  0  0  0  0  0  0  0  0  0
   22.5935    7.4865  -12.9376 C   0  0  0  0  0  0  0  0  0  0  0  0
   20.9065   10.8387   -6.2593 O   0  0  0  0  0  0  0  0  0  0  0  0
   21.8943   12.7715   -6.6842 O   0  0  0  0  0  0  0  0  0  0  0  0
   25.9680    8.4882  -14.7223 Cl  0  0  0  0  0  0  0  0  0  0  0  0
   21.9337   12.1116   -9.5684 C   0  0  0  0  0  0  0  0  0  0  0  0
   21.5474   12.0255  -14.5180 C   0  0  0  0  0  0  0  0  0  0  0  0
   23.8846    9.7766  -13.8627 C   0  0  0  0  0  0  0  0  0  0  0  0
   21.9551   11.2650  -13.3482 C   0  0  0  0  0  0  0  0  0  0  0  0
   21.2469   11.5705  -15.8719 C   0  0  0  0  0  0  0  0  0  0  0  0
   22.4200   12.2056  -12.2010 C   0  0  0  0  0  0  0  0  0  0  0  0
  1 11  2  0
  1 14  1  0
  2  5  1  0
  2 16  1  0
  3  7  1  0
  3 16  2  0
  4 11  1  0
  4 20  2  0
  4 25  1  0
  5 19  1  0
  5 22  2  0
  6  9  1  0
  6 13  1  0
  7 22  1  0
  7 23  1  0
  8 13  1  0
  8 15  1  0
  9 24  1  0
 10 12  1  0
 10 17  2  0
 10 18  1  0
 12 14  2  0
 12 20  1  0
 13 21  1  0
 15 25  1  0
 21 23  1  0
 21 24  1  0
 23 25  1  0
M  END
>  <ID>  (1) 
conformer_0

$$$$
