
     RDKit          3D

 28 30  0  0  0  0  0  0  0  0999 V2000
   23.2359    7.3880  -14.1528 C   0  0  0  0  0  0  0  0  0  0  0  0
   22.7093    9.5289  -15.1339 C   0  0  0  0  0  0  0  0  0  0  0  0
   25.1387    5.7372  -14.6300 O   0  0  0  0  0  0  0  0  0  0  0  0
   23.2937   12.5165  -13.8711 C   0  0  0  0  0  0  0  0  0  0  0  0
   19.1441   10.2825  -11.4597 C   0  0  0  0  0  0  0  0  0  0  0  0
   21.0615   11.5002   -7.2311 C   0  0  0  0  0  0  0  0  0  0  0  0
   24.1028   12.5219  -14.9185 O   0  0  0  0  0  0  0  0  0  0  0  0
   21.7258    9.8855  -10.1841 C   0  0  0  0  0  0  0  0  0  0  0  0
   20.6927   13.1831  -13.2865 C   0  0  0  0  0  0  0  0  0  0  0  0
   21.5475   13.1615   -9.5190 C   0  0  0  0  0  0  0  0  0  0  0  0
   23.7993    5.9744  -14.2525 C   0  0  0  0  0  0  0  0  0  0  0  0
   21.2342   11.9043   -8.7118 C   0  0  0  0  0  0  0  0  0  0  0  0
   21.8057   13.6647  -12.4632 C   0  0  0  0  0  0  0  0  0  0  0  0
   25.8660    6.7971  -15.3963 C   0  0  0  0  0  0  0  0  0  0  0  0
   21.8319   14.2531   -8.9293 O   0  0  0  0  0  0  0  0  0  0  0  0
   19.4712   10.9090  -10.1241 C   0  0  0  0  0  0  0  0  0  0  0  0
   22.6774    7.9018  -12.9781 N   0  0  0  0  0  0  0  0  0  0  0  0
   20.7781   10.7469   -9.5390 N   0  0  0  0  0  0  0  0  0  0  0  0
   21.4032   12.3655   -6.3701 O   0  0  0  0  0  0  0  0  0  0  0  0
   23.0244   13.7272  -13.2144 O   0  0  0  0  0  0  0  0  0  0  0  0
   23.1919    8.2215  -15.2764 C   0  0  0  0  0  0  0  0  0  0  0  0
   20.5373   10.3762   -6.9357 O   0  0  0  0  0  0  0  0  0  0  0  0
   22.2525   11.5210  -13.7887 C   0  0  0  0  0  0  0  0  0  0  0  0
   20.9701   12.0331  -14.1114 O   0  0  0  0  0  0  0  0  0  0  0  0
   21.8477    9.6075  -11.5374 N   0  0  0  0  0  0  0  0  0  0  0  0
   21.6411   13.3257  -10.9617 O   0  0  0  0  0  0  0  0  0  0  0  0
   22.3717   10.0474  -13.9188 N   0  0  0  0  0  0  0  0  0  0  0  0
   22.2856    9.1786  -12.8249 C   0  0  0  0  0  0  0  0  0  0  0  0
  1 11  1  0
  1 17  1  0
  1 21  1  0
  2 21  2  0
  2 27  1  0
  3 11  1  0
  3 14  1  0
  4  7  2  0
  4 20  1  0
  4 23  1  0
  5 16  1  0
  6 12  1  0
  6 19  2  0
  6 22  1  0
  8 18  1  0
  8 25  1  0
  9 13  1  0
  9 24  1  0
 10 12  1  0
 10 15  2  0
 10 26  1  0
 12 18  1  0
 13 20  1  0
 13 26  1  0
 16 18  1  0
 17 28  2  0
 23 24  1  0
 23 27  1  0
 25 28  1  0
 27 28  1  0
M  END
>  <ID>  (1) 
conformer_0

$$$$
