
     RDKit          3D

 22 23  0  0  0  0  0  0  0  0999 V2000
   23.9307    8.2766  -15.3814 C   0  0  0  0  0  0  0  0  0  0  0  0
   18.8011   10.5346  -10.9317 C   0  0  0  0  0  0  0  0  0  0  0  0
   23.6988    9.6987  -13.4671 C   0  0  0  0  0  0  0  0  0  0  0  0
   22.3037   14.5431   -9.6977 O   0  0  0  0  0  0  0  0  0  0  0  0
   22.3471   13.1551  -11.5971 C   0  0  0  0  0  0  0  0  0  0  0  0
   25.9269    9.3373  -14.5293 C   0  0  0  0  0  0  0  0  0  0  0  0
   23.0789   13.9700  -12.4285 O   0  0  0  0  0  0  0  0  0  0  0  0
   21.7619   12.3316   -7.7222 C   0  0  0  0  0  0  0  0  0  0  0  0
   22.0031   12.1651   -9.1872 C   0  0  0  0  0  0  0  0  0  0  0  0
   21.4926    9.8188  -12.3226 C   0  0  0  0  0  0  0  0  0  0  0  0
   21.7820    8.4808  -14.3301 C   0  0  0  0  0  0  0  0  0  0  0  0
   21.4554   10.7803   -9.5499 C   0  0  0  0  0  0  0  0  0  0  0  0
   22.5833    7.9765  -15.3257 C   0  0  0  0  0  0  0  0  0  0  0  0
   21.0270   11.1064  -11.8894 C   0  0  0  0  0  0  0  0  0  0  0  0
   22.3193   13.2533   -7.1408 O   0  0  0  0  0  0  0  0  0  0  0  0
   22.3339    9.3538  -13.3843 C   0  0  0  0  0  0  0  0  0  0  0  0
   20.8282   12.4454  -13.9007 C   0  0  0  0  0  0  0  0  0  0  0  0
   21.2731   12.4341  -12.4308 C   0  0  0  0  0  0  0  0  0  0  0  0
   20.8951   11.4821   -7.2210 O   0  0  0  0  0  0  0  0  0  0  0  0
   24.4569    9.1353  -14.4520 C   0  0  0  0  0  0  0  0  0  0  0  0
   22.0859   13.2975  -10.1549 C   0  0  0  0  0  0  0  0  0  0  0  0
   20.3043   10.9903  -10.5810 C   0  0  0  0  0  0  0  0  0  0  0  0
  1 13  2  0
  1 20  1  0
  2 22  1  0
  3 16  1  0
  3 20  2  0
  4 21  1  0
  5  7  1  0
  5 18  1  0
  5 21  1  0
  6 20  1  0
  8  9  1  0
  8 15  2  0
  8 19  1  0
  9 12  1  0
  9 21  1  0
 10 14  2  3
 10 16  1  0
 11 13  1  0
 11 16  2  0
 12 22  1  0
 14 18  1  0
 14 22  1  0
 17 18  1  0
M  END
>  <ID>  (1) 
conformer_0

$$$$
