
     RDKit          3D

 33 35  0  0  0  0  0  0  0  0999 V2000
   22.7063    8.3480  -13.3389 C   0  0  0  0  0  0  0  0  0  0  0  0
   21.5931   14.9872  -11.5313 N   0  0  0  0  0  0  0  0  0  0  0  0
   22.4231    7.6920  -11.1585 C   0  0  0  0  0  0  0  0  0  0  0  0
   20.4834   12.5913  -13.8372 C   0  0  0  0  0  0  0  0  0  0  0  0
   22.8048    7.2740  -12.4403 C   0  0  0  0  0  0  0  0  0  0  0  0
   24.4734    7.4486  -14.9836 C   0  0  0  0  0  0  0  0  0  0  0  0
   20.5011   12.5409  -15.1902 C   0  0  0  0  0  0  0  0  0  0  0  0
   25.4470    9.8272  -14.7468 O   0  0  0  0  0  0  0  0  0  0  0  0
   25.6508    8.5595  -14.9506 C   0  0  0  0  0  0  0  0  0  0  0  0
   21.9734    9.7707  -16.1817 C   0  0  0  0  0  0  0  0  0  0  0  0
   21.3960   10.8031  -16.6243 C   0  0  0  0  0  0  0  0  0  0  0  0
   21.0869   13.5922  -11.6114 C   0  0  0  0  0  0  0  0  0  0  0  0
   22.0102   14.8116   -8.9582 O   0  0  0  0  0  0  0  0  0  0  0  0
   21.1206   10.4796   -7.8368 C   0  0  0  0  0  0  0  0  0  0  0  0
   21.4425   13.0892  -12.9621 C   0  0  0  0  0  0  0  0  0  0  0  0
   20.8333    9.9636   -6.5308 C   0  0  0  0  0  0  0  0  0  0  0  0
   22.6287    8.8499  -15.7414 N   0  0  0  0  0  0  0  0  0  0  0  0
   21.7248    9.6748  -10.1165 C   0  0  0  0  0  0  0  0  0  0  0  0
   21.1682   11.9280   -8.0322 C   0  0  0  0  0  0  0  0  0  0  0  0
   21.3807    9.7391   -8.9013 C   0  0  0  0  0  0  0  0  0  0  0  0
   23.1392    8.1280  -14.7131 C   0  0  0  0  0  0  0  0  0  0  0  0
   21.2185   12.6939   -6.9761 O   0  0  0  0  0  0  0  0  0  0  0  0
   22.2501    9.4473  -12.6239 C   0  0  0  0  0  0  0  0  0  0  0  0
   21.8518   13.7987   -9.3192 C   0  0  0  0  0  0  0  0  0  0  0  0
   21.2706   12.5233   -9.3337 C   0  0  0  0  0  0  0  0  0  0  0  0
   26.7485    8.0668  -15.1836 O   0  0  0  0  0  0  0  0  0  0  0  0
   19.2789   12.2097  -13.1813 C   0  0  0  0  0  0  0  0  0  0  0  0
   20.7860   12.4544  -10.6638 C   0  0  0  0  0  0  0  0  0  0  0  0
   22.0942    9.0591  -11.2703 C   0  0  0  0  0  0  0  0  0  0  0  0
   19.3489   11.9821  -10.7913 C   0  0  0  0  0  0  0  0  0  0  0  0
   20.8339   11.8963  -16.2261 C   0  0  0  0  0  0  0  0  0  0  0  0
   22.8291   12.9398  -13.1609 O   0  0  0  0  0  0  0  0  0  0  0  0
   19.1746   11.3547  -12.0977 O   0  0  0  0  0  0  0  0  0  0  0  0
  1  5  1  0
  1 21  1  0
  1 23  1  0
  2 12  1  0
  3  5  1  0
  3 29  1  0
  4  7  1  0
  4 15  1  0
  4 27  1  0
  6  9  1  0
  6 21  1  0
  7 31  1  0
  8  9  2  0
  9 26  1  0
 10 11  1  0
 10 17  1  0
 11 31  2  0
 12 15  1  0
 12 28  1  0
 13 24  2  0
 14 16  1  0
 14 19  2  0
 14 20  1  0
 15 32  1  0
 17 21  1  0
 18 20  2  0
 18 29  2  0
 19 22  1  0
 19 25  1  0
 23 29  1  0
 24 25  2  0
 25 28  1  0
 27 33  1  0
 28 30  1  0
 30 33  1  0
M  END
>  <ID>  (1) 
conformer_0

$$$$
