
     RDKit          3D

 28 33  0  0  0  0  0  0  0  0999 V2000
   22.3020    8.8133  -11.3292 C   0  0  0  0  0  0  0  0  0  0  0  0
   20.8789   10.9731  -11.1619 C   0  0  0  0  0  0  0  0  0  0  0  0
   26.1485    8.4706  -14.8845 O   0  0  0  0  0  0  0  0  0  0  0  0
   21.9278   11.9696  -15.4003 C   0  0  0  0  0  0  0  0  0  0  0  0
   23.2895    8.1007  -11.9364 C   0  0  0  0  0  0  0  0  0  0  0  0
   23.0498   11.0971  -15.1516 C   0  0  0  0  0  0  0  0  0  0  0  0
   21.8472   12.7704  -12.9442 C   0  0  0  0  0  0  0  0  0  0  0  0
   25.0818   10.1469  -16.0439 C   0  0  0  0  0  0  0  0  0  0  0  0
   21.2775   12.3004  -11.7291 N   0  0  0  0  0  0  0  0  0  0  0  0
   21.5200   12.7336   -7.9786 C   0  0  0  0  0  0  0  0  0  0  0  0
   21.8540   10.0272  -11.8093 C   0  0  0  0  0  0  0  0  0  0  0  0
   21.5273   13.2899  -10.6415 C   0  0  0  0  0  0  0  0  0  0  0  0
   24.0707    8.3026  -13.0097 C   0  0  0  0  0  0  0  0  0  0  0  0
   20.7224   10.3460   -8.1671 S   0  0  0  0  0  0  0  0  0  0  0  0
   21.3433   12.5182   -9.4061 C   0  0  0  0  0  0  0  0  0  0  0  0
   21.8440   12.9780  -14.3784 C   0  0  0  0  0  0  0  0  0  0  0  0
   21.9333   14.1970  -12.7207 N   0  0  0  0  0  0  0  0  0  0  0  0
   20.9513   11.2166   -9.6527 C   0  0  0  0  0  0  0  0  0  0  0  0
   21.4578   11.4121   -5.8600 C   0  0  0  0  0  0  0  0  0  0  0  0
   24.1364    9.2661  -13.9819 C   0  0  0  0  0  0  0  0  0  0  0  0
   23.1698   10.2976  -14.0243 C   0  0  0  0  0  0  0  0  0  0  0  0
   22.3822   10.3721  -12.9838 C   0  0  0  0  0  0  0  0  0  0  0  0
   19.5824   10.6337  -11.5292 O   0  0  0  0  0  0  0  0  0  0  0  0
   24.0243   11.0379  -16.1318 C   0  0  0  0  0  0  0  0  0  0  0  0
   21.8935   14.4432  -11.3602 N   0  0  0  0  0  0  0  0  0  0  0  0
   21.2509   11.6241   -7.2367 C   0  0  0  0  0  0  0  0  0  0  0  0
   22.1373   15.5112  -10.7211 O   0  0  0  0  0  0  0  0  0  0  0  0
   25.1291    9.2835  -14.9510 C   0  0  0  0  0  0  0  0  0  0  0  0
  1  5  1  0
  1 11  1  0
  2  9  1  0
  2 11  1  0
  2 18  1  0
  2 23  1  0
  3 28  1  0
  4  6  1  0
  4 16  1  0
  5 13  2  0
  6 21  1  0
  6 24  2  0
  7  9  1  0
  7 16  1  0
  7 17  2  0
  8 24  1  0
  8 28  1  0
  9 12  1  0
 10 15  1  0
 10 26  1  0
 11 22  2  0
 12 15  1  0
 12 25  1  0
 13 20  1  0
 14 18  1  0
 14 26  1  0
 15 18  2  0
 17 25  1  0
 19 26  1  0
 20 21  1  0
 20 28  2  0
 21 22  2  0
 25 27  1  0
M  END
>  <ID>  (1) 
conformer_0

$$$$
