
     RDKit          3D

 23 24  0  0  0  0  0  0  0  0999 V2000
   19.4480   11.3336  -10.9543 C   0  0  0  0  0  0  0  0  0  0  0  0
   21.6953   10.2743  -14.7977 C   0  0  0  0  0  0  0  0  0  0  0  0
   22.0767   13.6398   -8.0606 O   0  0  0  0  0  0  0  0  0  0  0  0
   20.8578   11.8878  -10.7676 C   0  0  0  0  0  0  0  0  0  0  0  0
   21.7853   10.1146  -12.3292 C   0  0  0  0  0  0  0  0  0  0  0  0
   18.9891   10.7605   -9.7240 O   0  0  0  0  0  0  0  0  0  0  0  0
   23.4204    8.7515  -13.7385 C   0  0  0  0  0  0  0  0  0  0  0  0
   21.8319   10.9202  -11.0684 O   0  0  0  0  0  0  0  0  0  0  0  0
   22.8397    9.0262  -12.3782 C   0  0  0  0  0  0  0  0  0  0  0  0
   24.5465    9.7353  -14.1227 C   0  0  0  0  0  0  0  0  0  0  0  0
   20.4228    9.4157  -12.4718 C   0  0  0  0  0  0  0  0  0  0  0  0
   22.0039   11.0549  -13.5278 C   0  0  0  0  0  0  0  0  0  0  0  0
   21.1954   12.3030  -13.2413 C   0  0  0  0  0  0  0  0  0  0  0  0
   23.9077    7.4504  -13.7298 O   0  0  0  0  0  0  0  0  0  0  0  0
   23.3255    8.6715  -11.0028 C   0  0  0  0  0  0  0  0  0  0  0  0
   21.4266   11.5013   -7.9138 O   0  0  0  0  0  0  0  0  0  0  0  0
   22.2789    8.8614  -14.8120 C   0  0  0  0  0  0  0  0  0  0  0  0
   21.9464   13.3566  -12.4149 C   0  0  0  0  0  0  0  0  0  0  0  0
   20.7441   12.7677   -9.6797 N   0  0  0  0  0  0  0  0  0  0  0  0
   21.5248   12.6449   -8.5051 C   0  0  0  0  0  0  0  0  0  0  0  0
   23.3037   13.2845  -12.6563 O   0  0  0  0  0  0  0  0  0  0  0  0
   21.5299   14.5981  -12.8730 O   0  0  0  0  0  0  0  0  0  0  0  0
   21.5756   13.2369  -10.8788 C   0  0  0  0  0  0  0  0  0  0  0  0
  1  4  1  0
  1  6  1  0
  2 12  1  0
  2 17  1  0
  3 20  2  0
  4  8  1  0
  4 19  1  0
  4 23  1  0
  5  8  1  0
  5  9  1  0
  5 11  1  0
  5 12  1  0
  7  9  1  0
  7 10  1  0
  7 14  1  0
  7 17  1  0
  9 15  1  0
 12 13  1  0
 13 18  1  0
 16 20  1  0
 18 21  1  0
 18 22  1  0
 18 23  1  0
 19 20  1  0
M  END
>  <ID>  (1) 
conformer_0

$$$$
