
     RDKit          3D

 65 70  0  0  0  0  0  0  0  0999 V2000
   25.7510   11.9509  -17.5077 C   0  0  0  0  0  0  0  0  0  0  0  0
   26.6374   10.8278  -17.4782 O   0  0  0  0  0  0  0  0  0  0  0  0
   23.5694    7.1900  -15.3473 C   0  0  0  0  0  0  0  0  0  0  0  0
   23.6081    6.7045  -14.0271 C   0  0  0  0  0  0  0  0  0  0  0  0
   26.3493    9.6887  -18.2824 C   0  0  0  0  0  0  0  0  0  0  0  0
   24.4935   11.5409  -18.1123 C   0  0  0  0  0  0  0  0  0  0  0  0
   21.7546   13.6161  -13.6527 O   0  0  0  0  0  0  0  0  0  0  0  0
   24.5851    6.8657  -16.2708 C   0  0  0  0  0  0  0  0  0  0  0  0
   26.9620    5.9061  -16.3819 C   0  0  0  0  0  0  0  0  0  0  0  0
   21.3776   14.0482  -12.3427 C   0  0  0  0  0  0  0  0  0  0  0  0
   27.5021   12.9454  -18.6453 O   0  0  0  0  0  0  0  0  0  0  0  0
   21.7552   14.0916   -9.3081 C   0  0  0  0  0  0  0  0  0  0  0  0
   23.5281   10.3900  -16.0775 C   0  0  0  0  0  0  0  0  0  0  0  0
   21.0983   10.0470   -9.6677 O   0  0  0  0  0  0  0  0  0  0  0  0
   19.4870   12.4355  -14.6406 O   0  0  0  0  0  0  0  0  0  0  0  0
   21.6835   12.6731  -18.3677 C   0  0  0  0  0  0  0  0  0  0  0  0
   19.6053   15.1569   -8.9271 N   0  0  0  0  0  0  0  0  0  0  0  0
   21.8485   11.4738   -5.3336 C   0  0  0  0  0  0  0  0  0  0  0  0
   27.4736    6.8644  -16.9991 O   0  0  0  0  0  0  0  0  0  0  0  0
   23.8467   15.2963  -16.9293 C   0  0  0  0  0  0  0  0  0  0  0  0
   25.3038    5.1525  -14.7294 C   0  0  0  0  0  0  0  0  0  0  0  0
   22.6978   13.5831   -9.8831 O   0  0  0  0  0  0  0  0  0  0  0  0
   26.5039   13.1638  -17.7455 C   0  0  0  0  0  0  0  0  0  0  0  0
   20.8428    9.3750   -5.7196 C   0  0  0  0  0  0  0  0  0  0  0  0
   20.8203   10.8984   -7.4912 C   0  0  0  0  0  0  0  0  0  0  0  0
   24.3213    5.5201  -13.8345 C   0  0  0  0  0  0  0  0  0  0  0  0
   22.0555   12.2047  -19.5651 O   0  0  0  0  0  0  0  0  0  0  0  0
   21.5103   11.8186   -6.6580 C   0  0  0  0  0  0  0  0  0  0  0  0
   19.7303   10.7235  -11.6773 N   0  0  0  0  0  0  0  0  0  0  0  0
   25.5940    5.9780  -15.8311 C   0  0  0  0  0  0  0  0  0  0  0  0
   22.0518   15.2421  -12.0349 S   0  0  0  0  0  0  0  0  0  0  0  0
   20.4176   14.4415   -9.9726 C   0  0  0  0  0  0  0  0  0  0  0  0
   24.8746   15.1297  -17.9909 C   0  0  0  0  0  0  0  0  0  0  0  0
   19.3410   12.9355  -12.0879 O   0  0  0  0  0  0  0  0  0  0  0  0
   25.8994   14.8813  -15.9407 O   0  0  0  0  0  0  0  0  0  0  0  0
   26.1153   14.5635  -17.3758 C   0  0  0  0  0  0  0  0  0  0  0  0
   21.3169   11.1307  -15.0874 C   0  0  0  0  0  0  0  0  0  0  0  0
   22.3116   12.3239   -4.4275 O   0  0  0  0  0  0  0  0  0  0  0  0
   21.7950   14.3242   -8.0751 O   0  0  0  0  0  0  0  0  0  0  0  0
   21.8990    7.4859  -12.2226 C   0  0  0  0  0  0  0  0  0  0  0  0
   19.2924   11.2649  -10.3036 C   0  0  0  0  0  0  0  0  0  0  0  0
   23.8285   15.1468  -14.4788 C   0  0  0  0  0  0  0  0  0  0  0  0
   23.3559   11.1888  -17.2052 C   0  0  0  0  0  0  0  0  0  0  0  0
   21.1499   11.5587  -16.3189 C   0  0  0  0  0  0  0  0  0  0  0  0
   22.5176   10.3312  -14.9909 C   0  0  0  0  0  0  0  0  0  0  0  0
   20.4324    8.2361   -3.7991 O   0  0  0  0  0  0  0  0  0  0  0  0
   20.2998   11.6486  -14.0746 C   0  0  0  0  0  0  0  0  0  0  0  0
   24.1242    8.3143  -12.3520 C   0  0  0  0  0  0  0  0  0  0  0  0
   19.9814   11.7554  -12.6567 N   0  0  0  0  0  0  0  0  0  0  0  0
   20.3934    8.2040   -5.2691 N   0  0  0  0  0  0  0  0  0  0  0  0
   24.6570   15.4714  -15.7029 C   0  0  0  0  0  0  0  0  0  0  0  0
   21.9115    9.3339  -10.5528 C   0  0  0  0  0  0  0  0  0  0  0  0
   20.1841   10.9741   -9.0325 C   0  0  0  0  0  0  0  0  0  0  0  0
   23.7236   12.0279   -4.0784 C   0  0  0  0  0  0  0  0  0  0  0  0
   23.1426    7.4398  -12.8695 C   0  0  0  0  0  0  0  0  0  0  0  0
   27.7311    4.8538  -16.0248 N   0  0  0  0  0  0  0  0  0  0  0  0
   22.4013   14.5879  -14.5368 C   0  0  0  0  0  0  0  0  0  0  0  0
   21.5059   10.2160   -4.8960 C   0  0  0  0  0  0  0  0  0  0  0  0
   20.3189   13.7174  -11.3543 C   0  0  0  0  0  0  0  0  0  0  0  0
   18.8139    9.7665  -12.4491 C   0  0  0  0  0  0  0  0  0  0  0  0
   24.1798    9.2088  -11.4045 C   0  0  0  0  0  0  0  0  0  0  0  0
   22.0654   11.7539  -17.2956 C   0  0  0  0  0  0  0  0  0  0  0  0
   20.5322    9.6989   -7.0320 N   0  0  0  0  0  0  0  0  0  0  0  0
   21.4233    8.2703  -11.2714 C   0  0  0  0  0  0  0  0  0  0  0  0
   23.2187    9.7358  -10.5874 C   0  0  0  0  0  0  0  0  0  0  0  0
  1  2  1  0
  1  6  1  0
  1 23  1  0
  2  5  1  0
  3  4  1  0
  3  8  2  0
  4 26  1  0
  4 55  1  0
  6 43  1  0
  7 10  1  0
  7 57  1  0
  8 30  1  0
  9 19  2  0
  9 30  1  0
  9 56  1  0
 10 31  2  0
 10 59  1  0
 11 23  1  0
 12 22  2  0
 12 32  1  0
 12 39  1  0
 13 43  1  0
 13 45  2  0
 14 52  1  0
 14 53  1  0
 15 47  2  0
 16 27  1  0
 16 62  1  0
 17 32  1  0
 18 28  1  0
 18 38  1  0
 18 58  2  0
 20 33  1  0
 20 51  1  0
 21 26  2  0
 21 30  1  0
 23 36  1  0
 24 50  2  3
 24 58  1  0
 24 63  1  0
 25 28  1  0
 25 53  1  0
 25 63  2  0
 29 41  1  0
 29 49  1  0
 29 60  1  0
 32 59  1  0
 33 36  1  0
 34 49  1  0
 34 59  1  0
 35 36  1  0
 35 51  1  0
 37 44  1  0
 37 45  1  0
 37 47  1  0
 38 54  1  0
 40 55  1  0
 40 64  2  0
 41 53  2  3
 42 51  1  0
 42 57  1  0
 43 62  2  0
 44 62  1  0
 46 50  1  0
 47 49  1  0
 48 55  1  0
 48 61  2  0
 52 64  1  0
 52 65  2  0
 61 65  1  0
M  END
>  <ID>  (1) 
conformer_0

$$$$
