
     RDKit          3D

 20 19  0  0  0  0  0  0  0  0999 V2000
   20.6543   13.3561  -12.5056 O   0  0  0  0  0  0  0  0  0  0  0  0
   20.8928   11.2532   -9.8187 C   0  0  0  0  0  0  0  0  0  0  0  0
   21.7382   14.3920  -10.6422 C   0  0  0  0  0  0  0  0  0  0  0  0
   20.0104   10.3354  -10.0780 O   0  0  0  0  0  0  0  0  0  0  0  0
   21.2721    9.8548   -6.5558 O   0  0  0  0  0  0  0  0  0  0  0  0
   23.4210    7.3692  -13.5393 C   0  0  0  0  0  0  0  0  0  0  0  0
   21.8964   10.7052  -11.9066 C   0  0  0  0  0  0  0  0  0  0  0  0
   22.8764    8.7564  -13.3974 C   0  0  0  0  0  0  0  0  0  0  0  0
   21.5292    8.8195  -14.2188 C   0  0  0  0  0  0  0  0  0  0  0  0
   23.1958   12.5252  -13.4332 O   0  0  0  0  0  0  0  0  0  0  0  0
   21.5056   13.1754  -11.4745 C   0  0  0  0  0  0  0  0  0  0  0  0
   22.4894   11.3793  -13.1976 C   0  0  0  0  0  0  0  0  0  0  0  0
   21.5830   15.5290  -11.1393 O   0  0  0  0  0  0  0  0  0  0  0  0
   22.3184   14.2269   -9.5172 O   0  0  0  0  0  0  0  0  0  0  0  0
   22.5080    9.2213  -11.9503 C   0  0  0  0  0  0  0  0  0  0  0  0
   21.5789   11.8166  -10.9233 N   0  0  0  0  0  0  0  0  0  0  0  0
   25.2591    8.4272  -14.5967 O   0  0  0  0  0  0  0  0  0  0  0  0
   20.5032   10.3707   -7.5605 C   0  0  0  0  0  0  0  0  0  0  0  0
   21.2461   11.3980   -8.3923 C   0  0  0  0  0  0  0  0  0  0  0  0
   24.3821    7.3002  -14.7189 C   0  0  0  0  0  0  0  0  0  0  0  0
  1 11  2  0
  2  4  2  0
  2 16  1  0
  2 19  1  0
  3 11  1  0
  3 13  2  0
  3 14  1  0
  5 18  1  0
  6  8  1  0
  6 20  1  0
  7 12  1  0
  7 15  1  0
  7 16  1  0
  8  9  1  0
  8 15  1  0
 10 12  1  0
 11 16  1  0
 17 20  1  0
 18 19  1  0
M  END
>  <ID>  (1) 
conformer_0

$$$$
