
     RDKit          3D

 27 28  0  0  0  0  0  0  0  0999 V2000
   22.9887    6.6911  -13.5479 C   0  0  0  0  0  0  0  0  0  0  0  0
   21.1326   12.7301   -7.9243 C   0  0  0  0  0  0  0  0  0  0  0  0
   22.5805   12.4095  -14.5571 C   0  0  0  0  0  0  0  0  0  0  0  0
   20.9446   12.5110  -12.7028 C   0  0  0  0  0  0  0  0  0  0  0  0
   24.5979    8.0854  -14.1960 C   0  0  0  0  0  0  0  0  0  0  0  0
   21.6680   13.4405  -11.7618 C   0  0  0  0  0  0  0  0  0  0  0  0
   25.7664    8.6416  -14.8348 C   0  0  0  0  0  0  0  0  0  0  0  0
   21.0148   11.3917   -7.0764 C   0  0  0  0  0  0  0  0  0  0  0  0
   22.6197    9.6317  -11.4436 C   0  0  0  0  0  0  0  0  0  0  0  0
   22.0635    8.2999  -11.6752 C   0  0  0  0  0  0  0  0  0  0  0  0
   26.6584    7.9094  -15.2659 O   0  0  0  0  0  0  0  0  0  0  0  0
   21.1614   11.0458  -16.0887 C   0  0  0  0  0  0  0  0  0  0  0  0
   21.1561   12.8684  -14.1718 C   0  0  0  0  0  0  0  0  0  0  0  0
   23.6531    9.9395  -12.3698 C   0  0  0  0  0  0  0  0  0  0  0  0
   24.0589    6.8828  -14.4321 C   0  0  0  0  0  0  0  0  0  0  0  0
   19.8924   10.5551  -10.3145 O   0  0  0  0  0  0  0  0  0  0  0  0
   25.8318    9.9185  -15.0117 O   0  0  0  0  0  0  0  0  0  0  0  0
   21.2311   12.4052   -9.3863 C   0  0  0  0  0  0  0  0  0  0  0  0
   21.8602   14.6985  -12.3594 O   0  0  0  0  0  0  0  0  0  0  0  0
   22.8287    7.8060  -12.7508 C   0  0  0  0  0  0  0  0  0  0  0  0
   21.1092   11.0017   -9.8718 C   0  0  0  0  0  0  0  0  0  0  0  0
   23.8138    8.7178  -13.1777 N   0  0  0  0  0  0  0  0  0  0  0  0
   22.2619   14.5546   -9.7037 O   0  0  0  0  0  0  0  0  0  0  0  0
   21.3885   13.5888  -10.2761 C   0  0  0  0  0  0  0  0  0  0  0  0
   22.3832   10.2409  -10.1257 C   0  0  0  0  0  0  0  0  0  0  0  0
   22.4991   11.2387  -15.5165 C   0  0  0  0  0  0  0  0  0  0  0  0
   20.7385   11.9081  -17.2337 N   0  0  0  0  0  0  0  0  0  0  0  0
  1 15  1  0
  1 20  1  0
  2  8  1  0
  2 18  1  0
  3 13  1  0
  3 26  1  0
  4  6  1  0
  4 13  1  0
  5  7  1  0
  5 15  1  0
  5 22  1  0
  6 19  1  0
  6 24  1  0
  7 11  2  0
  7 17  1  0
  9 10  1  0
  9 14  1  0
  9 25  1  0
 10 20  1  0
 12 26  1  0
 12 27  1  0
 14 22  1  0
 16 21  1  0
 18 21  1  0
 18 24  1  0
 20 22  1  0
 21 25  1  0
 23 24  1  0
M  END
>  <ID>  (1) 
conformer_0

$$$$
