
     RDKit          3D

 24 24  0  0  0  0  0  0  0  0999 V2000
   24.2348    9.3479  -14.6816 C   0  0  0  0  0  0  0  0  0  0  0  0
   22.2533   14.7581  -13.2600 N   0  0  0  0  0  0  0  0  0  0  0  0
   21.1242    9.4299  -11.0788 C   0  0  0  0  0  0  0  0  0  0  0  0
   21.5873   10.1169  -15.1042 C   0  0  0  0  0  0  0  0  0  0  0  0
   20.3064   11.0242   -8.6240 C   0  0  0  0  0  0  0  0  0  0  0  0
   22.1249   14.9782  -10.3012 O   0  0  0  0  0  0  0  0  0  0  0  0
   23.2734    9.1137  -13.6579 C   0  0  0  0  0  0  0  0  0  0  0  0
   21.7119   13.9244   -8.4004 O   0  0  0  0  0  0  0  0  0  0  0  0
   20.6815   11.5215   -9.9551 C   0  0  0  0  0  0  0  0  0  0  0  0
   22.0507   12.6132  -11.8003 C   0  0  0  0  0  0  0  0  0  0  0  0
   20.3529   10.5347  -10.9709 C   0  0  0  0  0  0  0  0  0  0  0  0
   19.2840   10.7332  -11.6592 O   0  0  0  0  0  0  0  0  0  0  0  0
   20.9012    9.9118   -6.5420 N   0  0  0  0  0  0  0  0  0  0  0  0
   21.0097   11.2434   -7.3794 C   0  0  0  0  0  0  0  0  0  0  0  0
   23.7682    8.3970  -12.5270 C   0  0  0  0  0  0  0  0  0  0  0  0
   25.8957    8.8742  -14.3919 Cl  0  0  0  0  0  0  0  0  0  0  0  0
   23.1782    8.1650  -11.3202 C   0  0  0  0  0  0  0  0  0  0  0  0
   22.0041    9.5353  -13.9366 C   0  0  0  0  0  0  0  0  0  0  0  0
   23.8731    9.9033  -15.8825 C   0  0  0  0  0  0  0  0  0  0  0  0
   21.4025   12.6992  -10.4577 C   0  0  0  0  0  0  0  0  0  0  0  0
   22.0448    8.6712  -10.8545 C   0  0  0  0  0  0  0  0  0  0  0  0
   21.7576   13.9089   -9.6685 C   0  0  0  0  0  0  0  0  0  0  0  0
   22.5533   10.2817  -16.1047 C   0  0  0  0  0  0  0  0  0  0  0  0
   21.5027   13.5176  -12.8987 C   0  0  0  0  0  0  0  0  0  0  0  0
  1  7  2  0
  1 16  1  0
  1 19  1  0
  2 24  1  0
  3 11  2  0
  3 21  2  0
  4 18  2  0
  4 23  1  0
  5  9  1  0
  5 14  1  0
  6 22  2  0
  7 15  1  0
  7 18  1  0
  8 22  1  0
  9 11  1  0
  9 20  1  0
 10 20  1  0
 10 24  1  0
 11 12  1  0
 13 14  1  0
 15 17  2  3
 17 21  1  0
 19 23  2  0
 20 22  1  0
M  END
>  <ID>  (1) 
conformer_0

$$$$
