
     RDKit          3D

 28 30  0  0  0  0  0  0  0  0999 V2000
   20.9388   10.8785  -10.8607 C   0  0  0  0  0  0  0  0  0  0  0  0
   22.6195   13.5848  -14.0190 C   0  0  0  0  0  0  0  0  0  0  0  0
   23.6331   14.0443  -13.4873 O   0  0  0  0  0  0  0  0  0  0  0  0
   24.9145    8.6368  -15.0445 C   0  0  0  0  0  0  0  0  0  0  0  0
   22.6456   12.7938  -15.1773 C   0  0  0  0  0  0  0  0  0  0  0  0
   23.6120    9.1637  -12.7194 C   0  0  0  0  0  0  0  0  0  0  0  0
   20.8781    9.3898  -12.7360 C   0  0  0  0  0  0  0  0  0  0  0  0
   22.9002    8.9853  -13.9182 C   0  0  0  0  0  0  0  0  0  0  0  0
   21.6073   12.1441  -10.3900 C   0  0  0  0  0  0  0  0  0  0  0  0
   20.7334   13.2576  -11.0240 C   0  0  0  0  0  0  0  0  0  0  0  0
   25.6201    8.6642  -13.8541 N   0  0  0  0  0  0  0  0  0  0  0  0
   22.9532    9.5852  -11.5772 C   0  0  0  0  0  0  0  0  0  0  0  0
   18.6139   11.6236  -10.3914 O   0  0  0  0  0  0  0  0  0  0  0  0
   22.2453   12.7492   -8.0284 C   0  0  0  0  0  0  0  0  0  0  0  0
   19.5040   10.9563  -11.1397 C   0  0  0  0  0  0  0  0  0  0  0  0
   21.3857   13.8490  -13.5191 N   0  0  0  0  0  0  0  0  0  0  0  0
   20.8562   10.8249   -8.2853 C   0  0  0  0  0  0  0  0  0  0  0  0
   21.4887    8.9875  -13.8826 C   0  0  0  0  0  0  0  0  0  0  0  0
   24.9971    8.9621  -12.7069 C   0  0  0  0  0  0  0  0  0  0  0  0
   21.6065    9.9145  -11.6985 C   0  0  0  0  0  0  0  0  0  0  0  0
   20.6669   13.0479  -12.5383 C   0  0  0  0  0  0  0  0  0  0  0  0
   21.5551   11.5099   -6.0853 C   0  0  0  0  0  0  0  0  0  0  0  0
   20.8252   14.7951  -10.8131 C   0  0  0  0  0  0  0  0  0  0  0  0
   22.2549   12.5953   -6.6356 C   0  0  0  0  0  0  0  0  0  0  0  0
   21.5436   11.8869   -8.8606 C   0  0  0  0  0  0  0  0  0  0  0  0
   22.9328   12.4003  -10.8710 O   0  0  0  0  0  0  0  0  0  0  0  0
   23.5759    8.8352  -15.0974 C   0  0  0  0  0  0  0  0  0  0  0  0
   20.8662   10.6210   -6.9015 C   0  0  0  0  0  0  0  0  0  0  0  0
  1  9  1  0
  1 15  1  0
  1 20  1  0
  2  3  2  0
  2  5  1  0
  2 16  1  0
  4 11  2  0
  4 27  1  0
  6  8  1  0
  6 12  1  0
  6 19  2  0
  7 18  2  0
  7 20  1  0
  8 18  1  0
  8 27  2  0
  9 10  1  0
  9 25  1  0
  9 26  1  0
 10 21  1  0
 10 23  1  0
 11 19  1  0
 12 20  1  0
 13 15  1  0
 14 24  2  0
 14 25  1  0
 16 21  1  0
 17 25  2  0
 17 28  1  0
 22 24  1  0
 22 28  2  0
M  END
>  <ID>  (1) 
conformer_0

$$$$
