
     RDKit          3D

 29 30  0  0  0  0  0  0  0  0999 V2000
   21.2790   11.2196  -15.0620 C   0  0  0  0  0  0  0  0  0  0  0  0
   22.9236    8.5377  -10.4637 C   0  0  0  0  0  0  0  0  0  0  0  0
   25.3375    7.8255  -14.9985 N   0  0  0  0  0  0  0  0  0  0  0  0
   22.3091   14.3968   -9.9087 O   0  0  0  0  0  0  0  0  0  0  0  0
   22.0863   10.4569  -11.7049 C   0  0  0  0  0  0  0  0  0  0  0  0
   24.0030    7.4930  -15.1214 C   0  0  0  0  0  0  0  0  0  0  0  0
   21.3687   11.5405   -7.8662 C   0  0  0  0  0  0  0  0  0  0  0  0
   25.7031    8.9366  -14.2892 C   0  0  0  0  0  0  0  0  0  0  0  0
   21.8892   11.4452  -10.5645 C   0  0  0  0  0  0  0  0  0  0  0  0
   21.7638   12.6306   -7.2712 O   0  0  0  0  0  0  0  0  0  0  0  0
   20.9125   10.4886   -6.8501 C   0  0  0  0  0  0  0  0  0  0  0  0
   23.4264    9.4259  -13.7318 C   0  0  0  0  0  0  0  0  0  0  0  0
   21.3202   14.9003  -11.7955 O   0  0  0  0  0  0  0  0  0  0  0  0
   23.4895   12.0120  -14.6603 N   0  0  0  0  0  0  0  0  0  0  0  0
   22.2951   11.5895  -13.9499 C   0  0  0  0  0  0  0  0  0  0  0  0
   21.9847   11.5238  -16.3789 C   0  0  0  0  0  0  0  0  0  0  0  0
   24.7910    9.7204  -13.6659 C   0  0  0  0  0  0  0  0  0  0  0  0
   21.6244   14.0573  -10.8832 C   0  0  0  0  0  0  0  0  0  0  0  0
   21.1247   12.6747  -10.9646 C   0  0  0  0  0  0  0  0  0  0  0  0
   21.7433    9.0887  -11.2224 O   0  0  0  0  0  0  0  0  0  0  0  0
   19.6488   12.3386  -10.9749 C   0  0  0  0  0  0  0  0  0  0  0  0
   22.5504   10.3967  -13.0748 N   0  0  0  0  0  0  0  0  0  0  0  0
   21.3763   11.1779   -9.1631 C   0  0  0  0  0  0  0  0  0  0  0  0
   24.4128   12.1839  -16.9084 C   0  0  0  0  0  0  0  0  0  0  0  0
   23.0386    8.2708  -14.4791 C   0  0  0  0  0  0  0  0  0  0  0  0
   23.6709    6.3173  -15.9313 C   0  0  0  0  0  0  0  0  0  0  0  0
   19.1435   10.8743  -10.8755 C   0  0  0  0  0  0  0  0  0  0  0  0
   21.8760   12.7371  -13.3829 O   0  0  0  0  0  0  0  0  0  0  0  0
   23.2067   12.3346  -16.0403 C   0  0  0  0  0  0  0  0  0  0  0  0
  1 15  1  0
  1 16  1  0
  2 20  1  0
  3  6  2  0
  3  8  1  0
  4 18  2  0
  5  9  1  0
  5 20  1  0
  5 22  1  0
  6 25  1  0
  6 26  1  0
  7 10  1  0
  7 11  1  0
  7 23  2  3
  8 17  2  0
  9 19  1  0
  9 23  1  0
 12 17  1  0
 12 22  1  0
 12 25  2  0
 13 18  1  0
 14 15  1  0
 14 29  1  0
 15 22  1  0
 15 28  1  0
 16 29  1  0
 18 19  1  0
 19 21  2  3
 21 27  1  0
 24 29  1  0
M  END
>  <ID>  (1) 
conformer_0

$$$$
