
     RDKit          3D

 22 24  0  0  0  0  0  0  0  0999 V2000
   21.6274   12.4453  -11.4525 C   0  0  0  0  0  0  0  0  0  0  0  0
   20.6888   10.2158  -11.3077 C   0  0  0  0  0  0  0  0  0  0  0  0
   21.2192   14.5365  -10.4879 C   0  0  0  0  0  0  0  0  0  0  0  0
   21.5822   11.1357  -11.8045 C   0  0  0  0  0  0  0  0  0  0  0  0
   24.0213   10.2141  -14.4208 C   0  0  0  0  0  0  0  0  0  0  0  0
   21.5707   12.7995   -7.7657 C   0  0  0  0  0  0  0  0  0  0  0  0
   23.1761    9.9604  -13.3257 C   0  0  0  0  0  0  0  0  0  0  0  0
   21.0417   12.2960   -9.0771 C   0  0  0  0  0  0  0  0  0  0  0  0
   22.1552   13.4452  -12.3857 C   0  0  0  0  0  0  0  0  0  0  0  0
   20.0464   10.2755  -10.1171 C   0  0  0  0  0  0  0  0  0  0  0  0
   23.0335   13.4004  -13.2805 O   0  0  0  0  0  0  0  0  0  0  0  0
   24.4825    8.9185  -14.8802 C   0  0  0  0  0  0  0  0  0  0  0  0
   23.9298    7.8959  -14.0396 C   0  0  0  0  0  0  0  0  0  0  0  0
   23.1879    8.5658  -13.0681 C   0  0  0  0  0  0  0  0  0  0  0  0
   24.0745    6.4431  -14.2731 C   0  0  0  0  0  0  0  0  0  0  0  0
   22.4631   10.8663  -12.7362 O   0  0  0  0  0  0  0  0  0  0  0  0
   21.7070   14.6925  -11.9514 N   0  0  0  0  0  0  0  0  0  0  0  0
   22.2396   13.8039   -7.7090 O   0  0  0  0  0  0  0  0  0  0  0  0
   21.2750   13.0792  -10.2648 C   0  0  0  0  0  0  0  0  0  0  0  0
   22.5911    7.9663  -11.8862 C   0  0  0  0  0  0  0  0  0  0  0  0
   20.2934   11.1354   -9.0860 C   0  0  0  0  0  0  0  0  0  0  0  0
   21.3156   12.0634   -6.7310 O   0  0  0  0  0  0  0  0  0  0  0  0
  1  4  1  0
  1  9  1  0
  1 19  2  0
  2  4  1  0
  2 10  2  0
  3 17  1  0
  3 19  1  0
  4 16  1  0
  5  7  1  0
  5 12  1  0
  6  8  1  0
  6 18  2  0
  6 22  1  0
  7 14  2  0
  7 16  1  0
  8 19  1  0
  8 21  1  0
  9 11  2  0
  9 17  1  0
 10 21  1  0
 12 13  1  0
 13 14  1  0
 13 15  1  0
 14 20  1  0
M  END
>  <ID>  (1) 
conformer_0

$$$$
