
     RDKit          3D

 20 20  0  0  0  0  0  0  0  0999 V2000
   23.0645   10.3210  -12.6695 C   0  0  0  0  0  0  0  0  0  0  0  0
   21.6917   13.4060  -11.6435 C   0  0  0  0  0  0  0  0  0  0  0  0
   24.0580    9.4158  -13.1186 C   0  0  0  0  0  0  0  0  0  0  0  0
   20.1988   12.1664  -13.3516 C   0  0  0  0  0  0  0  0  0  0  0  0
   19.1504   11.7519  -12.2553 C   0  0  0  0  0  0  0  0  0  0  0  0
   26.6770    7.6555  -15.1721 O   0  0  0  0  0  0  0  0  0  0  0  0
   20.8983   10.2736   -6.6703 O   0  0  0  0  0  0  0  0  0  0  0  0
   23.0467    8.2537  -15.3996 C   0  0  0  0  0  0  0  0  0  0  0  0
   21.0856   11.4106   -7.2043 C   0  0  0  0  0  0  0  0  0  0  0  0
   22.3187   10.1037  -11.0025 S   0  0  0  0  0  0  0  0  0  0  0  0
   22.0955   14.6551  -11.8675 O   0  0  0  0  0  0  0  0  0  0  0  0
   21.5673   12.5001  -12.8129 C   0  0  0  0  0  0  0  0  0  0  0  0
   21.5522   12.4141   -6.6238 O   0  0  0  0  0  0  0  0  0  0  0  0
   25.4733    7.4386  -15.6995 C   0  0  0  0  0  0  0  0  0  0  0  0
   24.3776    8.0262  -15.0134 C   0  0  0  0  0  0  0  0  0  0  0  0
   24.7031    8.4773  -13.8004 O   0  0  0  0  0  0  0  0  0  0  0  0
   22.7311   11.6720  -13.2295 C   0  0  0  0  0  0  0  0  0  0  0  0
   21.6263   11.4000   -9.6509 C   0  0  0  0  0  0  0  0  0  0  0  0
   22.0083   12.8140  -10.2686 C   0  0  0  0  0  0  0  0  0  0  0  0
   20.5715   11.5646   -8.5897 C   0  0  0  0  0  0  0  0  0  0  0  0
  1  3  1  0
  1 10  1  0
  1 17  1  0
  2 11  1  0
  2 12  1  0
  2 19  1  0
  3 16  1  0
  4  5  1  0
  4 12  1  0
  6 14  1  0
  7  9  2  0
  8 15  1  0
  9 13  1  0
  9 20  1  0
 10 18  1  0
 12 17  1  0
 14 15  2  3
 15 16  1  0
 18 19  1  0
 18 20  1  0
M  END
>  <ID>  (1) 
conformer_0

$$$$
