
     RDKit          3D

 23 25  0  0  0  0  0  0  0  0999 V2000
   22.0400   12.7087   -9.9800 C   0  0  0  0  0  0  0  0  0  0  0  0
   21.3764   12.0839   -6.4085 O   0  0  0  0  0  0  0  0  0  0  0  0
   22.1588   11.3255  -14.3909 C   0  0  0  0  0  0  0  0  0  0  0  0
   21.3020   10.9439  -16.6295 C   0  0  0  0  0  0  0  0  0  0  0  0
   21.4210   11.9106   -7.7524 C   0  0  0  0  0  0  0  0  0  0  0  0
   21.7706   11.9635  -13.0274 C   0  0  0  0  0  0  0  0  0  0  0  0
   20.9782   14.1171  -12.5017 O   0  0  0  0  0  0  0  0  0  0  0  0
   22.4472    9.7130  -12.5697 C   0  0  0  0  0  0  0  0  0  0  0  0
   22.0024   13.4141  -12.7346 C   0  0  0  0  0  0  0  0  0  0  0  0
   23.1824   13.8362  -12.8459 O   0  0  0  0  0  0  0  0  0  0  0  0
   22.2516   11.0213  -11.9293 C   0  0  0  0  0  0  0  0  0  0  0  0
   23.0551   10.0243  -14.1068 C   0  0  0  0  0  0  0  0  0  0  0  0
   21.1194   10.6786   -8.3713 C   0  0  0  0  0  0  0  0  0  0  0  0
   25.1361    8.3256  -14.4551 C   0  0  0  0  0  0  0  0  0  0  0  0
   24.5478    9.2716  -13.4527 C   0  0  0  0  0  0  0  0  0  0  0  0
   21.8318   12.9565   -8.6201 C   0  0  0  0  0  0  0  0  0  0  0  0
   20.9098   11.0449  -15.2142 C   0  0  0  0  0  0  0  0  0  0  0  0
   21.2613   10.8088   -5.7071 C   0  0  0  0  0  0  0  0  0  0  0  0
   21.8404   11.4294  -10.5590 C   0  0  0  0  0  0  0  0  0  0  0  0
   24.4726    7.3798  -14.8844 O   0  0  0  0  0  0  0  0  0  0  0  0
   26.3602    8.5549  -14.7276 O   0  0  0  0  0  0  0  0  0  0  0  0
   23.7186    8.8516  -12.1629 C   0  0  0  0  0  0  0  0  0  0  0  0
   21.3010   10.4641   -9.7331 C   0  0  0  0  0  0  0  0  0  0  0  0
  1 16  1  0
  1 19  1  0
  2  5  1  0
  2 18  1  0
  3  6  1  0
  3 12  1  0
  3 17  1  0
  4 17  1  0
  5 13  1  0
  5 16  2  0
  6  9  1  0
  6 11  1  0
  7  9  2  0
  8 11  1  0
  8 12  1  0
  8 22  1  0
  9 10  1  0
 11 19  1  0
 12 15  1  0
 13 23  1  0
 14 15  1  0
 14 20  2  0
 14 21  1  0
 15 22  1  0
 19 23  2  0
M  END
>  <ID>  (1) 
conformer_0

$$$$
