
     RDKit          3D

 31 35  0  0  0  0  0  0  0  0999 V2000
   21.5750   11.8226   -9.3783 C   0  0  0  0  0  0  0  0  0  0  0  0
   20.8453   13.3743  -12.1884 C   0  0  0  0  0  0  0  0  0  0  0  0
   22.2552   12.0090  -17.2838 C   0  0  0  0  0  0  0  0  0  0  0  0
   20.5928   15.3573  -10.9146 C   0  0  0  0  0  0  0  0  0  0  0  0
   22.3242   11.5246  -12.0140 C   0  0  0  0  0  0  0  0  0  0  0  0
   22.8492    7.3463  -12.4079 C   0  0  0  0  0  0  0  0  0  0  0  0
   21.3580   14.1025  -11.0051 C   0  0  0  0  0  0  0  0  0  0  0  0
   21.7627   11.6788  -10.7106 C   0  0  0  0  0  0  0  0  0  0  0  0
   23.4999   11.4682  -16.9966 C   0  0  0  0  0  0  0  0  0  0  0  0
   21.9741   14.0398   -9.7836 N   0  0  0  0  0  0  0  0  0  0  0  0
   21.8378   13.3507   -7.5220 C   0  0  0  0  0  0  0  0  0  0  0  0
   21.7998   13.0941   -8.8644 C   0  0  0  0  0  0  0  0  0  0  0  0
   22.9446    9.5857  -13.5704 C   0  0  0  0  0  0  0  0  0  0  0  0
   21.4492   12.3490   -6.6478 C   0  0  0  0  0  0  0  0  0  0  0  0
   21.5089   12.3560  -12.8802 C   0  0  0  0  0  0  0  0  0  0  0  0
   26.4951    7.1126  -15.3461 O   0  0  0  0  0  0  0  0  0  0  0  0
   21.5043   11.0599  -15.1595 C   0  0  0  0  0  0  0  0  0  0  0  0
   25.1704    7.5016  -15.3208 S   0  0  0  0  0  4  0  0  0  0  0  0
   24.4933    7.0524  -16.4647 O   0  0  0  0  0  0  0  0  0  0  0  0
   21.9764    9.2115  -11.3273 C   0  0  0  0  0  0  0  0  0  0  0  0
   21.1465   11.1004   -7.1312 C   0  0  0  0  0  0  0  0  0  0  0  0
   21.1769   10.8483   -8.4916 C   0  0  0  0  0  0  0  0  0  0  0  0
   23.3706    8.1208  -13.4206 C   0  0  0  0  0  0  0  0  0  0  0  0
   22.7836   10.4440  -14.7987 C   0  0  0  0  0  0  0  0  0  0  0  0
   25.1536   10.1755  -15.7647 C   0  0  0  0  0  0  0  0  0  0  0  0
   24.2808    7.3139  -14.1849 O   0  0  0  0  0  0  0  0  0  0  0  0
   23.7439   10.7200  -15.8294 C   0  0  0  0  0  0  0  0  0  0  0  0
   21.2613   11.7775  -16.3308 C   0  0  0  0  0  0  0  0  0  0  0  0
   22.4258   10.0559  -12.3255 C   0  0  0  0  0  0  0  0  0  0  0  0
   22.1432    7.8688  -11.3518 C   0  0  0  0  0  0  0  0  0  0  0  0
   25.2924    9.0852  -14.8351 C   0  0  0  0  0  0  0  0  0  0  0  0
  1  8  1  0
  1 12  2  0
  1 22  1  0
  2  7  1  0
  2 15  1  0
  3  9  2  0
  3 28  1  0
  4  7  1  0
  5  8  1  0
  5 15  1  0
  5 29  1  0
  6 23  2  0
  6 30  1  0
  7 10  1  0
  9 27  1  0
 10 12  1  0
 11 12  1  0
 11 14  2  0
 13 23  1  0
 13 24  1  0
 13 29  1  0
 14 21  1  0
 16 18  1  0
 17 24  1  0
 17 28  2  0
 18 19  1  0
 18 26  1  0
 18 31  1  0
 20 29  1  0
 20 30  2  0
 21 22  2  0
 23 26  1  0
 24 27  2  0
 25 27  1  0
 25 31  1  0
M  END
>  <ID>  (1) 
conformer_0

$$$$
