
     RDKit          3D

 28 31  0  0  0  0  0  0  0  0999 V2000
   23.8733   10.6244  -15.0744 C   0  0  0  0  0  0  0  0  0  0  0  0
   23.7634    6.7866  -14.1638 C   0  0  0  0  0  0  0  0  0  0  0  0
   20.9941   11.7823  -10.8157 C   0  0  0  0  0  0  0  0  0  0  0  0
   22.3691   14.7067   -9.5245 O   0  0  0  0  0  0  0  0  0  0  0  0
   22.0512   13.4909   -9.5299 C   0  0  0  0  0  0  0  0  0  0  0  0
   23.4842   11.7071  -14.2108 O   0  0  0  0  0  0  0  0  0  0  0  0
   21.4991   13.0947  -10.8065 C   0  0  0  0  0  0  0  0  0  0  0  0
   23.1742    6.9173  -12.8767 C   0  0  0  0  0  0  0  0  0  0  0  0
   19.7360    9.2519  -13.0200 C   0  0  0  0  0  0  0  0  0  0  0  0
   22.2293   11.0807   -9.0201 O   0  0  0  0  0  0  0  0  0  0  0  0
   24.7257   10.8342  -15.9422 O   0  0  0  0  0  0  0  0  0  0  0  0
   21.9622   12.3896   -8.4841 C   0  0  0  0  0  0  0  0  0  0  0  0
   22.0494   13.6872  -11.9470 N   0  0  0  0  0  0  0  0  0  0  0  0
   23.0128    9.2536  -13.3156 C   0  0  0  0  0  0  0  0  0  0  0  0
   20.8903   12.1605   -7.4274 C   0  0  0  0  0  0  0  0  0  0  0  0
   24.3354    5.4441  -14.6274 C   0  0  0  0  0  0  0  0  0  0  0  0
   21.7007   10.7666  -10.2092 C   0  0  0  0  0  0  0  0  0  0  0  0
   21.8101   13.2873  -13.3140 C   0  0  0  0  0  0  0  0  0  0  0  0
   18.6455   11.6637  -11.7259 C   0  0  0  0  0  0  0  0  0  0  0  0
   21.5450   12.4017   -6.1563 O   0  0  0  0  0  0  0  0  0  0  0  0
   21.4822    9.6011  -11.0097 C   0  0  0  0  0  0  0  0  0  0  0  0
   23.0094   13.0831  -14.1463 C   0  0  0  0  0  0  0  0  0  0  0  0
   23.9185    7.8846  -15.0199 C   0  0  0  0  0  0  0  0  0  0  0  0
   19.9800   11.1610  -11.5692 C   0  0  0  0  0  0  0  0  0  0  0  0
   23.5969    9.2601  -14.5284 C   0  0  0  0  0  0  0  0  0  0  0  0
   20.3894    9.8950  -11.8543 C   0  0  0  0  0  0  0  0  0  0  0  0
   22.8227    8.2047  -12.4976 C   0  0  0  0  0  0  0  0  0  0  0  0
   22.2634    8.4299  -11.1723 N   0  0  0  0  0  0  0  0  0  0  0  0
  1  6  1  0
  1 11  2  0
  1 25  1  0
  2  8  1  0
  2 16  1  0
  2 23  2  0
  3  7  1  0
  3 17  1  0
  3 24  1  0
  4  5  2  0
  5  7  1  0
  5 12  1  0
  6 22  1  0
  7 13  1  0
  8 27  2  0
  9 26  1  0
 10 12  1  0
 10 17  1  0
 12 15  1  0
 13 18  1  0
 14 25  2  0
 14 27  1  0
 15 20  1  0
 17 21  1  0
 18 22  1  0
 19 24  1  0
 21 26  2  0
 21 28  1  0
 23 25  1  0
 24 26  1  0
 27 28  1  0
M  END
>  <ID>  (1) 
conformer_0

$$$$
