
     RDKit          3D

 33 37  0  0  0  0  0  0  0  0999 V2000
   25.1654    8.0811  -14.7257 O   0  0  0  0  0  0  0  0  0  0  0  0
   21.6027   12.7782  -13.4930 C   0  0  0  0  0  0  0  0  0  0  0  0
   21.3703   12.2068   -9.7073 C   0  0  0  0  0  0  0  0  0  0  0  0
   20.9024   11.9499   -7.2865 C   0  0  0  0  0  0  0  0  0  0  0  0
   20.3060   10.7663  -13.7923 C   0  0  0  0  0  0  0  0  0  0  0  0
   24.8715   10.4709  -15.5020 C   0  0  0  0  0  0  0  0  0  0  0  0
   24.0702   12.4865  -16.2098 C   0  0  0  0  0  0  0  0  0  0  0  0
   23.2817    7.3604  -13.2417 C   0  0  0  0  0  0  0  0  0  0  0  0
   22.1530   13.7872  -12.7265 N   0  0  0  0  0  0  0  0  0  0  0  0
   24.6739    9.2105  -12.5996 C   0  0  0  0  0  0  0  0  0  0  0  0
   19.3046   11.8992  -11.8774 C   0  0  0  0  0  0  0  0  0  0  0  0
   24.3716    8.2049  -13.4977 C   0  0  0  0  0  0  0  0  0  0  0  0
   20.8250   11.2451  -15.1217 C   0  0  0  0  0  0  0  0  0  0  0  0
   25.1342   11.5324  -16.3517 C   0  0  0  0  0  0  0  0  0  0  0  0
   21.6299   15.3039  -11.0739 O   0  0  0  0  0  0  0  0  0  0  0  0
   21.0873   12.6175   -8.4035 C   0  0  0  0  0  0  0  0  0  0  0  0
   22.8333    8.5387  -11.1723 C   0  0  0  0  0  0  0  0  0  0  0  0
   22.8907    6.3793  -14.3371 C   0  0  0  0  0  0  0  0  0  0  0  0
   22.1215    8.6522  -10.0307 O   0  0  0  0  0  0  0  0  0  0  0  0
   21.2072   13.1255  -10.6877 N   0  0  0  0  0  0  0  0  0  0  0  0
   20.9893   10.5750   -7.1019 C   0  0  0  0  0  0  0  0  0  0  0  0
   21.8305   12.3692  -14.8643 C   0  0  0  0  0  0  0  0  0  0  0  0
   21.6500   14.1098  -11.4518 C   0  0  0  0  0  0  0  0  0  0  0  0
   23.7083   10.8011  -14.9330 N   0  0  0  0  0  0  0  0  0  0  0  0
   21.7699   10.9556  -10.0136 C   0  0  0  0  0  0  0  0  0  0  0  0
   20.6288   10.0851   -5.8257 C   0  0  0  0  0  0  0  0  0  0  0  0
   25.7793    9.2662  -15.2724 C   0  0  0  0  0  0  0  0  0  0  0  0
   23.1620   11.9699  -15.2915 C   0  0  0  0  0  0  0  0  0  0  0  0
   20.4870   12.0141  -12.9253 C   0  0  0  0  0  0  0  0  0  0  0  0
   21.7620    9.7829   -9.3534 C   0  0  0  0  0  0  0  0  0  0  0  0
   22.5694    7.4662  -12.0393 C   0  0  0  0  0  0  0  0  0  0  0  0
   21.3746    9.6686   -8.0401 C   0  0  0  0  0  0  0  0  0  0  0  0
   23.9010    9.3912  -11.4852 C   0  0  0  0  0  0  0  0  0  0  0  0
  1 12  1  0
  1 27  1  0
  2  9  2  0
  2 22  1  0
  2 29  1  0
  3 16  1  0
  3 20  1  0
  3 25  1  0
  4 16  2  0
  4 21  1  0
  5 13  1  0
  5 29  1  0
  6 14  1  0
  6 24  2  0
  6 27  1  0
  7 14  1  0
  7 28  1  0
  8 12  2  0
  8 18  1  0
  8 31  1  0
  9 23  1  0
 10 12  1  0
 10 33  2  0
 11 29  1  0
 13 22  1  0
 15 23  2  0
 17 19  1  0
 17 31  2  0
 17 33  1  0
 19 30  1  0
 20 23  1  0
 21 26  1  0
 21 32  2  0
 22 28  1  0
 24 28  1  0
 25 30  2  0
 30 32  1  0
M  END
>  <ID>  (1) 
conformer_0

$$$$
