
     RDKit          3D

 23 24  0  0  0  0  0  0  0  0999 V2000
   22.1230   11.4823  -15.2225 C   0  0  0  0  0  0  0  0  0  0  0  0
   23.1187   10.6237  -14.3342 C   0  0  0  0  0  0  0  0  0  0  0  0
   22.6860   13.5404  -12.1806 O   0  0  0  0  0  0  0  0  0  0  0  0
   21.3522   12.0452   -6.7713 C   0  0  0  0  0  0  0  0  0  0  0  0
   21.5306   15.2029  -11.2145 N   0  0  0  0  0  0  0  0  0  0  0  0
   19.1928   10.2163  -11.3844 C   0  0  0  0  0  0  0  0  0  0  0  0
   24.6247    8.6902  -14.1840 C   0  0  0  0  0  0  0  0  0  0  0  0
   22.3231    8.4156  -11.2359 C   0  0  0  0  0  0  0  0  0  0  0  0
   21.8505   13.8894  -11.3118 C   0  0  0  0  0  0  0  0  0  0  0  0
   21.6099   13.3179   -8.9240 C   0  0  0  0  0  0  0  0  0  0  0  0
   22.0128   14.4626   -8.4965 O   0  0  0  0  0  0  0  0  0  0  0  0
   21.1677   10.8538  -12.7997 C   0  0  0  0  0  0  0  0  0  0  0  0
   21.2877   12.1965   -8.1752 N   0  0  0  0  0  0  0  0  0  0  0  0
   20.5951   10.8274  -11.4515 C   0  0  0  0  0  0  0  0  0  0  0  0
   23.9448    8.2074  -13.0622 C   0  0  0  0  0  0  0  0  0  0  0  0
   23.1262   11.9934  -14.5375 O   0  0  0  0  0  0  0  0  0  0  0  0
   22.3869   10.0752  -13.2043 C   0  0  0  0  0  0  0  0  0  0  0  0
   21.4253   12.9595  -10.2834 C   0  0  0  0  0  0  0  0  0  0  0  0
   22.8864    8.9257  -12.5728 C   0  0  0  0  0  0  0  0  0  0  0  0
   24.2549    9.8639  -14.7869 C   0  0  0  0  0  0  0  0  0  0  0  0
   20.9360   11.1534   -8.9892 N   0  0  0  0  0  0  0  0  0  0  0  0
   20.9835   11.6099  -10.2553 C   0  0  0  0  0  0  0  0  0  0  0  0
   25.6085    8.0173  -14.6612 O   0  0  0  0  0  0  0  0  0  0  0  0
  1 16  1  0
  2 16  1  0
  2 17  1  0
  2 20  1  0
  3  9  2  0
  4 13  1  0
  5  9  1  0
  6 14  1  0
  7 15  1  0
  7 20  1  0
  7 23  2  0
  8 19  1  0
  9 18  1  0
 10 11  2  0
 10 13  1  0
 10 18  1  0
 12 14  1  0
 12 17  1  0
 13 21  1  0
 14 22  1  0
 15 19  2  0
 17 19  1  0
 18 22  2  0
 21 22  1  0
M  END
>  <ID>  (1) 
conformer_0

$$$$
