
     RDKit          3D

 18 19  0  0  0  0  0  0  0  0999 V2000
   25.2832    8.6015  -14.5010 C   0  0  0  0  0  0  0  0  0  0  0  0
   23.1997    7.6609  -14.5546 C   0  0  0  0  0  0  0  0  0  0  0  0
   22.5213   13.9435  -12.0883 O   0  0  0  0  0  0  0  0  0  0  0  0
   21.2801   12.1154  -11.0920 C   0  0  0  0  0  0  0  0  0  0  0  0
   21.3785   12.1281   -7.5649 C   0  0  0  0  0  0  0  0  0  0  0  0
   20.7629   10.8653  -11.3726 C   0  0  0  0  0  0  0  0  0  0  0  0
   24.0858    6.8591  -15.4399 C   0  0  0  0  0  0  0  0  0  0  0  0
   21.4705    9.9725  -12.2275 C   0  0  0  0  0  0  0  0  0  0  0  0
   21.2973   14.1718   -9.5969 O   0  0  0  0  0  0  0  0  0  0  0  0
   21.2259   10.8383   -8.4470 C   0  0  0  0  0  0  0  0  0  0  0  0
   25.3629    7.4484  -15.3767 C   0  0  0  0  0  0  0  0  0  0  0  0
   23.9632    8.6878  -14.0270 C   0  0  0  0  0  0  0  0  0  0  0  0
   22.2621   12.6025  -11.9762 C   0  0  0  0  0  0  0  0  0  0  0  0
   23.6288    9.5693  -13.1196 C   0  0  0  0  0  0  0  0  0  0  0  0
   20.9364   12.8955   -9.8622 C   0  0  0  0  0  0  0  0  0  0  0  0
   22.9740   11.7569  -12.7802 C   0  0  0  0  0  0  0  0  0  0  0  0
   22.6599   10.4330  -12.7521 C   0  0  0  0  0  0  0  0  0  0  0  0
   20.6498   12.0766   -8.7384 N   0  0  0  0  0  0  0  0  0  0  0  0
  1 11  1  0
  1 12  1  0
  2  7  1  0
  2 12  1  0
  3 13  1  0
  4  6  1  0
  4 13  1  0
  4 15  1  0
  5 18  1  0
  6  8  2  0
  7 11  1  0
  8 17  1  0
  9 15  2  0
 10 18  1  0
 12 14  1  0
 13 16  2  0
 14 17  1  0
 15 18  1  0
 16 17  1  0
M  END
>  <ID>  (1) 
conformer_0

$$$$
