
     RDKit          3D

 18 19  0  0  0  0  0  0  0  0999 V2000
   21.2513   10.2327  -10.1008 C   0  0  0  0  0  0  0  0  0  0  0  0
   21.4305   13.6341   -9.8698 C   0  0  0  0  0  0  0  0  0  0  0  0
   22.3819    9.4346  -10.8658 C   0  0  0  0  0  0  0  0  0  0  0  0
   24.9012    7.9493  -14.2801 O   0  0  0  0  0  0  0  0  0  0  0  0
   22.5545    9.0155  -12.2475 C   0  0  0  0  0  0  0  0  0  0  0  0
   21.5672   13.5188  -11.3684 C   0  0  0  0  0  0  0  0  0  0  0  0
   21.7597   14.7394  -11.9844 O   0  0  0  0  0  0  0  0  0  0  0  0
   23.2078    7.7607  -12.5981 C   0  0  0  0  0  0  0  0  0  0  0  0
   22.9307   10.1119  -13.2452 C   0  0  0  0  0  0  0  0  0  0  0  0
   21.9907   14.6473   -9.3008 O   0  0  0  0  0  0  0  0  0  0  0  0
   22.1833   11.4131  -12.8734 C   0  0  0  0  0  0  0  0  0  0  0  0
   21.0194   11.5471  -13.4856 O   0  0  0  0  0  0  0  0  0  0  0  0
   22.9944    9.2170  -14.5222 C   0  0  0  0  0  0  0  0  0  0  0  0
   20.6842   12.5807   -9.1138 C   0  0  0  0  0  0  0  0  0  0  0  0
   23.5857    7.8762  -14.0587 C   0  0  0  0  0  0  0  0  0  0  0  0
   20.1340   11.4522  -10.0793 C   0  0  0  0  0  0  0  0  0  0  0  0
   21.2602   12.3087   -7.6886 C   0  0  0  0  0  0  0  0  0  0  0  0
   22.6008   12.4816  -11.8700 C   0  0  0  0  0  0  0  0  0  0  0  0
  1  3  1  0
  1 16  1  0
  2  6  1  0
  2 10  1  0
  2 14  1  0
  3  5  1  0
  4 15  1  0
  5  8  1  0
  5  9  1  0
  6  7  1  0
  6 18  1  0
  8 15  1  0
  9 11  1  0
  9 13  1  0
 11 12  1  0
 11 18  2  0
 13 15  1  0
 14 16  1  0
 14 17  1  0
M  END
>  <ID>  (1) 
conformer_0

$$$$
