
     RDKit          3D

 27 28  0  0  0  0  0  0  0  0999 V2000
   21.4548   10.1824  -11.1825 C   0  0  0  0  0  0  0  0  0  0  0  0
   22.2068   13.6139  -13.6260 C   0  0  0  0  0  0  0  0  0  0  0  0
   20.2700   10.3853   -7.1565 O   0  0  0  0  0  0  0  0  0  0  0  0
   20.4043   12.3470  -12.5578 C   0  0  0  0  0  0  0  0  0  0  0  0
   21.9188    9.9301  -15.0135 C   0  0  0  0  0  0  0  0  0  0  0  0
   20.7078   11.5639  -11.2483 C   0  0  0  0  0  0  0  0  0  0  0  0
   21.9753   14.2908  -12.2554 O   0  0  0  0  0  0  0  0  0  0  0  0
   22.2781    9.9904  -12.5032 C   0  0  0  0  0  0  0  0  0  0  0  0
   21.5186   12.1769  -13.6095 C   0  0  0  0  0  0  0  0  0  0  0  0
   24.5228   12.9327  -15.8265 O   0  0  0  0  0  0  0  0  0  0  0  0
   21.3976   13.9765  -10.6638 S   0  0  0  0  0  4  0  0  0  0  0  0
   24.9472   11.7451  -16.4347 C   0  0  0  0  0  0  0  0  0  0  0  0
   23.6303    9.4413  -12.9417 C   0  0  0  0  0  0  0  0  0  0  0  0
   21.1576   10.5133  -15.9706 O   0  0  0  0  0  0  0  0  0  0  0  0
   22.3177   14.6011   -9.8267 O   0  0  0  0  0  0  0  0  0  0  0  0
   23.4111   10.1587  -15.3460 C   0  0  0  0  0  0  0  0  0  0  0  0
   23.9626   10.6528  -16.5610 C   0  0  0  0  0  0  0  0  0  0  0  0
   19.9354   14.4235  -10.6598 O   0  0  0  0  0  0  0  0  0  0  0  0
   24.3142   10.1548  -14.1319 C   0  0  0  0  0  0  0  0  0  0  0  0
   21.6110    8.4473  -14.9070 C   0  0  0  0  0  0  0  0  0  0  0  0
   20.4145   10.6550   -8.5483 C   0  0  0  0  0  0  0  0  0  0  0  0
   21.5888   10.6233  -13.6873 C   0  0  0  0  0  0  0  0  0  0  0  0
   21.8246   12.5242   -7.6502 C   0  0  0  0  0  0  0  0  0  0  0  0
   23.6421    7.9420  -12.8970 C   0  0  0  0  0  0  0  0  0  0  0  0
   21.2986   12.3625  -10.1074 O   0  0  0  0  0  0  0  0  0  0  0  0
   21.5000   12.3923   -6.3451 O   0  0  0  0  0  0  0  0  0  0  0  0
   21.4658   11.6843   -8.8529 C   0  0  0  0  0  0  0  0  0  0  0  0
  1  6  1  0
  1  8  1  0
  2  7  1  0
  2  9  1  0
  3 21  1  0
  4  6  1  0
  4  9  1  0
  5 14  1  0
  5 16  1  0
  5 20  1  0
  5 22  1  0
  7 11  1  0
  8 13  1  0
  8 22  1  0
  9 22  1  0
 10 12  1  0
 11 15  1  0
 11 18  1  0
 11 25  1  0
 12 17  1  0
 13 19  1  0
 13 24  1  0
 16 17  1  0
 16 19  1  0
 21 27  1  0
 23 26  1  0
 23 27  1  0
 25 27  1  0
M  END
>  <ID>  (1) 
conformer_0

$$$$
