
     RDKit          3D

 20 22  0  0  0  0  0  0  0  0999 V2000
   23.8846    8.8058  -13.8806 C   0  0  0  0  0  0  0  0  0  0  0  0
   22.0061   12.8254   -8.7356 C   0  0  0  0  0  0  0  0  0  0  0  0
   20.2315   14.3101  -11.6079 O   0  0  0  0  0  0  0  0  0  0  0  0
   22.8263    8.0478  -13.4062 C   0  0  0  0  0  0  0  0  0  0  0  0
   23.8997   10.1886  -13.7609 C   0  0  0  0  0  0  0  0  0  0  0  0
   21.0862   11.3768  -11.8361 N   0  0  0  0  0  0  0  0  0  0  0  0
   20.5246   10.6208   -8.0179 C   0  0  0  0  0  0  0  0  0  0  0  0
   22.0385   12.4595   -7.3168 C   0  0  0  0  0  0  0  0  0  0  0  0
   21.7578    8.7214  -12.7466 C   0  0  0  0  0  0  0  0  0  0  0  0
   21.1802   14.1268  -10.7836 C   0  0  0  0  0  0  0  0  0  0  0  0
   21.8407   10.1142  -12.5925 C   0  0  0  0  0  0  0  0  0  0  0  0
   25.2089    8.0504  -14.6495 Cl  0  0  0  0  0  0  0  0  0  0  0  0
   21.1321   11.3365   -6.8899 C   0  0  0  0  0  0  0  0  0  0  0  0
   22.8055   10.8267  -13.0402 C   0  0  0  0  0  0  0  0  0  0  0  0
   20.6199   11.5716  -10.4470 C   0  0  0  0  0  0  0  0  0  0  0  0
   23.0543   13.1656  -12.5494 O   0  0  0  0  0  0  0  0  0  0  0  0
   22.0201   15.0384  -10.4750 O   0  0  0  0  0  0  0  0  0  0  0  0
   21.0246   12.9400   -9.8895 C   0  0  0  0  0  0  0  0  0  0  0  0
   21.0223   10.4100   -9.4729 C   0  0  0  0  0  0  0  0  0  0  0  0
   22.2479   12.1449  -12.3677 C   0  0  0  0  0  0  0  0  0  0  0  0
  1  4  2  0
  1  5  1  0
  1 12  1  0
  2  8  1  0
  2 18  1  0
  3 10  2  0
  4  9  1  0
  5 14  1  0
  6 11  1  0
  6 15  1  0
  6 20  1  0
  7 13  1  0
  7 19  1  0
  8 13  1  0
  9 11  1  0
 10 17  1  0
 10 18  1  0
 11 14  2  0
 14 20  1  0
 15 18  1  0
 15 19  1  0
 16 20  2  0
M  END
>  <ID>  (1) 
conformer_0

$$$$
