
     RDKit          3D

 32 34  0  0  0  0  0  0  0  0999 V2000
   26.6263    9.4131  -17.9766 O   0  0  0  0  0  0  0  0  0  0  0  0
   20.9032   10.8597   -7.9981 C   0  0  0  0  0  0  0  0  0  0  0  0
   18.6983   12.9799  -11.8689 O   0  0  0  0  0  0  0  0  0  0  0  0
   22.2534    7.7015  -12.9443 C   0  0  0  0  0  0  0  0  0  0  0  0
   21.1979   13.2012   -8.5956 C   0  0  0  0  0  0  0  0  0  0  0  0
   22.6932   14.2041  -10.1794 O   0  0  0  0  0  0  0  0  0  0  0  0
   21.4905   12.6304   -6.1221 O   0  0  0  0  0  0  0  0  0  0  0  0
   24.2383   10.1092  -15.6694 C   0  0  0  0  0  0  0  0  0  0  0  0
   21.2735   10.2862   -5.6379 C   0  0  0  0  0  0  0  0  0  0  0  0
   20.9909   12.4835  -10.4498 C   0  0  0  0  0  0  0  0  0  0  0  0
   21.3953   13.8877  -10.1050 C   0  0  0  0  0  0  0  0  0  0  0  0
   22.8943   11.6430  -13.9477 C   0  0  0  0  0  0  0  0  0  0  0  0
   21.6587   12.5917  -14.2180 C   0  0  0  0  0  0  0  0  0  0  0  0
   21.3965   13.2498  -12.8220 C   0  0  0  0  0  0  0  0  0  0  0  0
   20.8984   12.1037  -11.9481 C   0  0  0  0  0  0  0  0  0  0  0  0
   20.3445    9.3071   -6.0500 O   0  0  0  0  0  0  0  0  0  0  0  0
   22.7124    8.3862  -11.6450 C   0  0  0  0  0  0  0  0  0  0  0  0
   19.4113   11.8475  -12.3456 C   0  0  0  0  0  0  0  0  0  0  0  0
   21.8435    8.7770  -10.4367 C   0  0  0  0  0  0  0  0  0  0  0  0
   20.5048   14.8667  -10.5571 O   0  0  0  0  0  0  0  0  0  0  0  0
   26.2660   10.2128  -17.0723 C   0  0  0  0  0  0  0  0  0  0  0  0
   24.1401    9.1299  -14.5502 C   0  0  0  0  0  0  0  0  0  0  0  0
   21.2659   11.4289   -6.6500 C   0  0  0  0  0  0  0  0  0  0  0  0
   21.3161   10.6361  -12.1514 C   0  0  0  0  0  0  0  0  0  0  0  0
   23.5423    9.6711  -12.0626 C   0  0  0  0  0  0  0  0  0  0  0  0
   22.8322    8.2931  -14.2954 C   0  0  0  0  0  0  0  0  0  0  0  0
   22.2992   14.5340  -12.8881 C   0  0  0  0  0  0  0  0  0  0  0  0
   25.5874    9.5655  -15.8735 C   0  0  0  0  0  0  0  0  0  0  0  0
   26.6473   11.4217  -16.9521 O   0  0  0  0  0  0  0  0  0  0  0  0
   20.8034    9.8423  -10.9071 C   0  0  0  0  0  0  0  0  0  0  0  0
   21.1046   11.8051   -9.1466 C   0  0  0  0  0  0  0  0  0  0  0  0
   22.5941   10.5254  -12.9186 C   0  0  0  0  0  0  0  0  0  0  0  0
  1 21  2  0
  2 23  1  0
  2 31  1  0
  3 18  1  0
  4 17  1  0
  4 26  1  0
  5 11  1  0
  5 31  1  0
  6 11  1  0
  7 23  1  0
  8 22  1  0
  8 28  1  0
  9 16  1  0
  9 23  1  0
 10 11  1  0
 10 15  1  0
 10 31  1  0
 11 20  1  0
 12 13  1  0
 12 32  1  0
 13 14  1  0
 14 15  1  0
 14 27  1  0
 15 18  1  0
 15 24  1  0
 17 19  1  0
 17 25  1  0
 19 30  1  0
 21 28  1  0
 21 29  1  0
 22 26  1  0
 24 30  1  0
 24 32  1  0
 25 32  1  0
M  END
>  <ID>  (1) 
conformer_0

$$$$
