
     RDKit          3D

 35 37  0  0  0  0  0  0  0  0999 V2000
   21.2207   12.7286   -7.9096 C   0  0  0  0  0  0  0  0  0  0  0  0
   20.5108   11.7639   -8.5393 N   0  0  0  0  0  0  0  0  0  0  0  0
   21.2113   12.6987   -6.6929 O   0  0  0  0  0  0  0  0  0  0  0  0
   20.9427   12.6986  -12.1884 C   0  0  0  0  0  0  0  0  0  0  0  0
   21.7769   10.2297  -16.5729 N   0  0  0  0  0  0  0  0  0  0  0  0
   19.4157   10.7698  -10.4659 C   0  0  0  0  0  0  0  0  0  0  0  0
   26.4382    8.1924  -15.5218 N   0  0  0  0  0  0  0  0  0  0  0  0
   23.1600   12.4494  -13.1949 C   0  0  0  0  0  0  0  0  0  0  0  0
   21.8033   13.8792  -16.7739 C   0  0  0  0  0  0  0  0  0  0  0  0
   23.1625    9.5153  -10.4072 C   0  0  0  0  0  0  0  0  0  0  0  0
   22.2495    8.3727  -10.9681 C   0  0  0  0  0  0  0  0  0  0  0  0
   24.6338    7.0595  -14.4927 C   0  0  0  0  0  0  0  0  0  0  0  0
   20.1490   12.3384  -16.3427 O   0  0  0  0  0  0  0  0  0  0  0  0
   18.8647   10.5506  -11.6799 C   0  0  0  0  0  0  0  0  0  0  0  0
   25.8199    9.4030  -15.3812 C   0  0  0  0  0  0  0  0  0  0  0  0
   22.3481   11.3990  -16.4835 C   0  0  0  0  0  0  0  0  0  0  0  0
   22.1074   14.5857  -13.4144 C   0  0  0  0  0  0  0  0  0  0  0  0
   22.4016    8.0348  -12.3482 C   0  0  0  0  0  0  0  0  0  0  0  0
   20.2840   11.7081   -9.9281 C   0  0  0  0  0  0  0  0  0  0  0  0
   19.1112   11.1884  -12.8996 C   0  0  0  0  0  0  0  0  0  0  0  0
   25.8362    7.0169  -15.1495 N   0  0  0  0  0  0  0  0  0  0  0  0
   23.6387   11.5223  -15.7797 C   0  0  0  0  0  0  0  0  0  0  0  0
   23.8453   10.6499  -14.6572 N   0  0  0  0  0  0  0  0  0  0  0  0
   21.9200   13.6371   -8.6686 N   0  0  0  0  0  0  0  0  0  0  0  0
   21.5017   12.4621  -16.6126 N   0  0  0  0  0  0  0  0  0  0  0  0
   20.3678   10.5007   -7.8729 C   0  0  0  0  0  0  0  0  0  0  0  0
   22.0790   13.2920  -12.7748 N   0  0  0  0  0  0  0  0  0  0  0  0
   22.0366   14.8863  -10.5180 O   0  0  0  0  0  0  0  0  0  0  0  0
   23.0141    8.3938  -13.3885 O   0  0  0  0  0  0  0  0  0  0  0  0
   20.0090   12.2002  -13.0486 C   0  0  0  0  0  0  0  0  0  0  0  0
   23.2793   11.0234  -13.4200 C   0  0  0  0  0  0  0  0  0  0  0  0
   21.7103   13.7326  -10.0034 C   0  0  0  0  0  0  0  0  0  0  0  0
   20.9579   12.6793  -10.7391 C   0  0  0  0  0  0  0  0  0  0  0  0
   24.0836    8.2739  -14.2026 C   0  0  0  0  0  0  0  0  0  0  0  0
   24.5953    9.4723  -14.7550 C   0  0  0  0  0  0  0  0  0  0  0  0
  1  2  1  0
  1  3  2  0
  1 24  1  0
  2 19  1  0
  2 26  1  0
  4 27  1  0
  4 30  1  0
  4 33  1  0
  5 16  2  0
  6 14  2  0
  6 19  1  0
  7 15  2  0
  7 21  1  0
  8 27  1  0
  8 31  1  0
  9 25  1  0
 10 11  1  0
 11 18  2  3
 12 21  1  0
 12 34  2  0
 13 25  1  0
 14 20  1  0
 15 35  1  0
 16 22  1  0
 16 25  1  0
 17 27  1  0
 18 29  1  0
 19 33  2  0
 20 30  2  0
 22 23  1  0
 23 31  1  0
 23 35  1  0
 24 32  1  0
 28 32  2  0
 29 34  1  0
 32 33  1  0
 34 35  1  0
M  END
>  <ID>  (1) 
conformer_0

$$$$
