
     RDKit          3D

 20 21  0  0  0  0  0  0  0  0999 V2000
   21.9906   14.5667   -8.8088 O   0  0  0  0  0  0  0  0  0  0  0  0
   21.8520   11.5223   -8.2023 N   0  0  0  0  0  0  0  0  0  0  0  0
   22.8976   12.8490  -10.0623 C   0  0  0  0  0  0  0  0  0  0  0  0
   19.6201   11.7297  -10.3412 C   0  0  0  0  0  0  0  0  0  0  0  0
   25.5689    7.0982  -15.4708 C   0  0  0  0  0  0  0  0  0  0  0  0
   25.0976    9.1125  -14.1049 C   0  0  0  0  0  0  0  0  0  0  0  0
   22.7863    8.0555  -13.0016 C   0  0  0  0  0  0  0  0  0  0  0  0
   18.6316   11.0328  -11.0316 C   0  0  0  0  0  0  0  0  0  0  0  0
   22.0191   11.7944   -9.5303 C   0  0  0  0  0  0  0  0  0  0  0  0
   22.6209   10.1192  -11.6140 O   0  0  0  0  0  0  0  0  0  0  0  0
   22.4002   14.2496   -9.9291 C   0  0  0  0  0  0  0  0  0  0  0  0
   21.3033   10.3378  -11.3261 C   0  0  0  0  0  0  0  0  0  0  0  0
   20.3052    9.6079  -11.9523 C   0  0  0  0  0  0  0  0  0  0  0  0
   23.5278    7.2928  -13.9498 C   0  0  0  0  0  0  0  0  0  0  0  0
   23.2050    9.3376  -12.5755 C   0  0  0  0  0  0  0  0  0  0  0  0
   22.1377   14.8743  -11.0459 O   0  0  0  0  0  0  0  0  0  0  0  0
   24.3822    9.8366  -13.1602 C   0  0  0  0  0  0  0  0  0  0  0  0
   24.6981    7.8528  -14.4704 C   0  0  0  0  0  0  0  0  0  0  0  0
   20.9472   11.3384  -10.3920 C   0  0  0  0  0  0  0  0  0  0  0  0
   18.9816    9.9327  -11.8034 C   0  0  0  0  0  0  0  0  0  0  0  0
  1 11  2  0
  2  9  1  0
  3  9  1  0
  3 11  1  0
  4  8  2  0
  4 19  1  0
  5 18  1  0
  6 17  2  0
  6 18  1  0
  7 14  1  0
  7 15  2  0
  8 20  1  0
  9 19  1  0
 10 12  1  0
 10 15  1  0
 11 16  1  0
 12 13  1  0
 12 19  2  0
 13 20  2  0
 14 18  2  0
 15 17  1  0
M  END
>  <ID>  (1) 
conformer_0

$$$$
