
     RDKit          3D

 27 32  0  0  0  0  0  0  0  0999 V2000
   22.0920   12.6352  -11.8180 C   0  0  0  0  0  0  0  0  0  0  0  0
   22.3268   14.2084   -9.3830 O   0  0  0  0  0  0  0  0  0  0  0  0
   24.3796    7.3122  -14.5780 C   0  0  0  0  0  0  0  0  0  0  0  0
   21.1278   10.8545   -8.5420 N   0  0  0  0  0  0  0  0  0  0  0  0
   22.1950   13.6904  -13.9342 C   0  0  0  0  0  0  0  0  0  0  0  0
   22.1844   11.6257  -12.8708 C   0  0  0  0  0  0  0  0  0  0  0  0
   22.3829    7.9664  -13.4066 C   0  0  0  0  0  0  0  0  0  0  0  0
   21.7841   12.2104  -10.4900 C   0  0  0  0  0  0  0  0  0  0  0  0
   22.0419   11.8596  -15.4853 N   0  0  0  0  0  0  0  0  0  0  0  0
   20.8816   10.2559   -7.1787 C   0  0  0  0  0  0  0  0  0  0  0  0
   22.0977   14.0945  -16.3295 C   0  0  0  0  0  0  0  0  0  0  0  0
   21.2708   10.8571  -10.0985 C   0  0  0  0  0  0  0  0  0  0  0  0
   21.1494   11.1674   -6.2177 C   0  0  0  0  0  0  0  0  0  0  0  0
   22.1567   14.6008  -14.9955 C   0  0  0  0  0  0  0  0  0  0  0  0
   21.5285   12.2072   -8.1064 C   0  0  0  0  0  0  0  0  0  0  0  0
   20.3173    9.0884  -11.4710 O   0  0  0  0  0  0  0  0  0  0  0  0
   21.5147   12.3600   -6.8081 N   0  0  0  0  0  0  0  0  0  0  0  0
   22.1382   10.2412  -12.4265 C   0  0  0  0  0  0  0  0  0  0  0  0
   22.9120    9.2227  -13.0789 C   0  0  0  0  0  0  0  0  0  0  0  0
   24.2365    9.4938  -13.4751 C   0  0  0  0  0  0  0  0  0  0  0  0
   21.2296    9.9739  -11.3070 C   0  0  0  0  0  0  0  0  0  0  0  0
   24.9435    8.5616  -14.2352 C   0  0  0  0  0  0  0  0  0  0  0  0
   21.9293   13.0431   -9.2899 C   0  0  0  0  0  0  0  0  0  0  0  0
   22.2127   13.9032  -12.4832 N   0  0  0  0  0  0  0  0  0  0  0  0
   22.0424   12.7174  -16.5577 C   0  0  0  0  0  0  0  0  0  0  0  0
   22.1525   12.3069  -14.1806 C   0  0  0  0  0  0  0  0  0  0  0  0
   23.0718    7.0210  -14.1309 C   0  0  0  0  0  0  0  0  0  0  0  0
  1  6  2  0
  1  8  1  0
  1 24  1  0
  2 23  2  0
  3 22  1  0
  3 27  1  0
  4 10  1  0
  4 12  1  0
  4 15  1  0
  5 14  1  0
  5 24  1  0
  5 26  2  0
  6 18  1  0
  6 26  1  0
  7 19  1  0
  7 27  2  0
  8 12  2  0
  8 23  1  0
  9 25  2  0
  9 26  1  0
 10 13  1  0
 11 14  2  0
 11 25  1  0
 12 21  1  0
 13 17  1  0
 15 17  2  0
 15 23  1  0
 16 21  2  0
 18 19  1  0
 18 21  1  0
 19 20  1  0
 20 22  2  0
M  END
>  <ID>  (1) 
conformer_0

$$$$
