
     RDKit          3D

 27 29  0  0  0  0  0  0  0  0999 V2000
   22.8910   12.3145  -11.5413 C   0  0  0  0  0  0  0  0  0  0  0  0
   21.6384   13.2083  -11.3215 C   0  0  0  0  0  0  0  0  0  0  0  0
   21.0822   11.0719  -12.7534 C   0  0  0  0  0  0  0  0  0  0  0  0
   19.3198   13.1787  -10.7437 O   0  0  0  0  0  0  0  0  0  0  0  0
   23.1710    9.8736  -12.2345 C   0  0  0  0  0  0  0  0  0  0  0  0
   20.4728   12.3430  -10.6752 C   0  0  0  0  0  0  0  0  0  0  0  0
   21.2449   11.7171   -9.5107 C   0  0  0  0  0  0  0  0  0  0  0  0
   24.9317    8.0997  -14.9604 C   0  0  0  0  0  0  0  0  0  0  0  0
   22.2984   12.2938  -16.0966 C   0  0  0  0  0  0  0  0  0  0  0  0
   23.1967    7.6220  -13.1550 C   0  0  0  0  0  0  0  0  0  0  0  0
   21.9341   10.5438  -10.1851 C   0  0  0  0  0  0  0  0  0  0  0  0
   24.3755    8.3865  -13.6249 C   0  0  0  0  0  0  0  0  0  0  0  0
   22.4952    8.4811  -12.0921 C   0  0  0  0  0  0  0  0  0  0  0  0
   21.9164   14.2947  -10.5754 O   0  0  0  0  0  0  0  0  0  0  0  0
   21.5461   12.6241   -7.4142 O   0  0  0  0  0  0  0  0  0  0  0  0
   22.6848   13.5166  -15.3526 C   0  0  0  0  0  0  0  0  0  0  0  0
   26.1551    8.8222  -14.9832 O   0  0  0  0  0  0  0  0  0  0  0  0
   26.2637    6.2766  -15.6291 O   0  0  0  0  0  0  0  0  0  0  0  0
   25.2093    6.6032  -14.9880 C   0  0  0  0  0  0  0  0  0  0  0  0
   24.5420    5.6710  -14.3508 O   0  0  0  0  0  0  0  0  0  0  0  0
   22.3321   13.3142  -13.9457 C   0  0  0  0  0  0  0  0  0  0  0  0
   20.4801   10.7564   -7.5534 O   0  0  0  0  0  0  0  0  0  0  0  0
   21.3066   11.6064  -15.2768 C   0  0  0  0  0  0  0  0  0  0  0  0
   19.9377   11.2077  -11.7203 C   0  0  0  0  0  0  0  0  0  0  0  0
   21.4876   12.0581  -13.8744 C   0  0  0  0  0  0  0  0  0  0  0  0
   22.2770   10.9180  -11.6758 C   0  0  0  0  0  0  0  0  0  0  0  0
   21.1378   11.6542   -8.0510 C   0  0  0  0  0  0  0  0  0  0  0  0
  1  2  1  0
  1 26  1  0
  2  6  1  0
  2 14  1  0
  3 24  1  0
  3 25  1  0
  3 26  1  0
  4  6  1  0
  5 13  1  0
  5 26  1  0
  6  7  1  0
  6 24  1  0
  7 11  1  0
  7 27  1  0
  8 12  1  0
  8 17  1  0
  8 19  1  0
  9 16  1  0
  9 23  1  0
 10 12  1  0
 10 13  1  0
 11 26  1  0
 15 27  2  0
 16 21  1  0
 18 19  2  0
 19 20  1  0
 21 25  1  0
 22 27  1  0
 23 25  1  0
M  END
>  <ID>  (1) 
conformer_0

$$$$
