
     RDKit          3D

 23 23  0  0  0  0  0  0  0  0999 V2000
   23.2364   13.5590  -12.1726 O   0  0  0  0  0  0  0  0  0  0  0  0
   22.2089   10.2320  -13.1309 C   0  0  0  0  0  0  0  0  0  0  0  0
   21.5395    9.6014  -10.5315 C   0  0  0  0  0  0  0  0  0  0  0  0
   22.8575    8.9002  -13.0382 C   0  0  0  0  0  0  0  0  0  0  0  0
   20.0455   10.3027   -8.4757 O   0  0  0  0  0  0  0  0  0  0  0  0
   21.9146   11.1159  -10.7002 C   0  0  0  0  0  0  0  0  0  0  0  0
   21.6754   14.2451   -8.6361 O   0  0  0  0  0  0  0  0  0  0  0  0
   24.3734    8.9079  -13.2226 C   0  0  0  0  0  0  0  0  0  0  0  0
   19.6123   11.6521  -13.0837 O   0  0  0  0  0  0  0  0  0  0  0  0
   21.9916   12.4140  -10.0128 C   0  0  0  0  0  0  0  0  0  0  0  0
   24.7195    9.6421  -14.5015 C   0  0  0  0  0  0  0  0  0  0  0  0
   21.6268   12.0241   -7.5781 C   0  0  0  0  0  0  0  0  0  0  0  0
   21.4559   10.5839  -14.3128 C   0  0  0  0  0  0  0  0  0  0  0  0
   22.4032   12.7366   -6.6313 O   0  0  0  0  0  0  0  0  0  0  0  0
   25.7342    8.9072  -15.2897 C   0  0  0  0  0  0  0  0  0  0  0  0
   20.6220   11.8032  -14.0711 C   0  0  0  0  0  0  0  0  0  0  0  0
   22.3954   12.6725  -12.5890 C   0  0  0  0  0  0  0  0  0  0  0  0
   21.1214   10.8867   -6.6155 O   0  0  0  0  0  0  0  0  0  0  0  0
   21.4998   12.9537   -8.7702 C   0  0  0  0  0  0  0  0  0  0  0  0
   21.5218   12.9845  -13.7497 C   0  0  0  0  0  0  0  0  0  0  0  0
   26.5146    7.9903  -14.8512 O   0  0  0  0  0  0  0  0  0  0  0  0
   22.3641   11.3023  -12.1450 C   0  0  0  0  0  0  0  0  0  0  0  0
   21.3041   10.6170   -7.9493 C   0  0  0  0  0  0  0  0  0  0  0  0
  1 17  1  0
  2  4  1  0
  2 13  1  0
  2 22  1  0
  3  6  1  0
  4  8  1  0
  5 23  1  0
  6 10  2  3
  6 22  1  0
  7 19  1  0
  8 11  1  0
  9 16  1  0
 10 19  1  0
 11 15  1  0
 12 14  1  0
 12 19  1  0
 12 23  1  0
 13 16  1  0
 15 21  2  0
 16 20  1  0
 17 20  1  0
 17 22  1  0
 18 23  1  0
M  END
>  <ID>  (1) 
conformer_0

$$$$
