
     RDKit          3D

 28 32  0  0  0  0  0  0  0  0999 V2000
   22.3736   11.9852  -13.9033 N   0  0  0  0  0  0  0  0  0  0  0  0
   23.7842    8.4793  -10.9518 C   0  0  0  0  0  0  0  0  0  0  0  0
   20.1168   12.3417  -12.7643 C   0  0  0  0  0  0  0  0  0  0  0  0
   22.2811   10.7087  -14.2055 C   0  0  0  0  0  0  0  0  0  0  0  0
   21.3663   11.9964   -6.7949 C   0  0  0  0  0  0  0  0  0  0  0  0
   19.9824   11.7621  -11.2879 C   0  0  0  0  0  0  0  0  0  0  0  0
   24.4954    8.6534  -12.1511 C   0  0  0  0  0  0  0  0  0  0  0  0
   21.2220   12.6528   -9.4069 C   0  0  0  0  0  0  0  0  0  0  0  0
   23.2935   14.0174  -13.2597 O   0  0  0  0  0  0  0  0  0  0  0  0
   24.5674   10.2588  -15.4348 C   0  0  0  0  0  0  0  0  0  0  0  0
   22.5457   13.0178  -12.9344 C   0  0  0  0  0  0  0  0  0  0  0  0
   20.5723   11.5430   -8.9006 C   0  0  0  0  0  0  0  0  0  0  0  0
   25.7867    9.5786  -16.3351 C   0  0  0  0  0  0  0  0  0  0  0  0
   21.8336    9.2915  -12.0278 C   0  0  0  0  0  0  0  0  0  0  0  0
   21.9981   13.0933   -7.2022 N   0  0  0  0  0  0  0  0  0  0  0  0
   25.8406   10.0038  -17.4277 O   0  0  0  0  0  0  0  0  0  0  0  0
   21.2833   10.2914  -14.9291 O   0  0  0  0  0  0  0  0  0  0  0  0
   19.8043   10.8053  -10.0192 C   0  0  0  0  0  0  0  0  0  0  0  0
   20.6688   11.1717   -7.5795 N   0  0  0  0  0  0  0  0  0  0  0  0
   21.0408   12.8652  -10.7973 N   0  0  0  0  0  0  0  0  0  0  0  0
   21.2667   13.4185  -12.1552 C   0  0  0  0  0  0  0  0  0  0  0  0
   22.4457    8.7379  -10.9200 C   0  0  0  0  0  0  0  0  0  0  0  0
   23.5003   11.3159  -14.7133 C   0  0  0  0  0  0  0  0  0  0  0  0
   22.5853    9.6862  -13.1134 C   0  0  0  0  0  0  0  0  0  0  0  0
   26.3986    8.6013  -15.8646 O   0  0  0  0  0  0  0  0  0  0  0  0
   21.9888   13.4050   -8.5777 C   0  0  0  0  0  0  0  0  0  0  0  0
   23.8213    9.1594  -13.2866 C   0  0  0  0  0  0  0  0  0  0  0  0
   24.3619    8.9938  -14.6441 C   0  0  0  0  0  0  0  0  0  0  0  0
  1  4  1  0
  1 11  1  0
  2  7  1  0
  2 22  2  0
  3  6  1  0
  3 21  1  0
  4 17  1  0
  4 23  1  0
  4 24  1  0
  5 15  1  0
  5 19  2  0
  6 18  1  0
  6 20  1  0
  7 27  2  0
  8 12  1  0
  8 20  1  0
  8 26  2  0
  9 11  2  0
 10 13  1  0
 10 23  1  0
 10 28  1  0
 11 21  1  0
 12 18  1  0
 12 19  1  0
 13 16  2  0
 13 25  1  0
 14 22  1  0
 14 24  1  0
 15 26  1  0
 20 21  1  0
 24 27  1  0
 27 28  1  0
M  END
>  <ID>  (1) 
conformer_0

$$$$
