
     RDKit          3D

 15 16  0  0  0  0  0  0  0  0999 V2000
   22.1867   13.2150  -11.8162 C   0  0  0  0  0  0  0  0  0  0  0  0
   21.7317   14.1753  -10.9504 N   0  0  0  0  0  0  0  0  0  0  0  0
   26.0998    8.3030  -14.9046 C   0  0  0  0  0  0  0  0  0  0  0  0
   22.9809   10.8236  -12.1616 C   0  0  0  0  0  0  0  0  0  0  0  0
   24.9982    9.2657  -14.9041 C   0  0  0  0  0  0  0  0  0  0  0  0
   21.8611   12.3905   -6.7529 C   0  0  0  0  0  0  0  0  0  0  0  0
   21.2863   12.4310   -9.3232 C   0  0  0  0  0  0  0  0  0  0  0  0
   21.2977   13.7999   -9.6827 C   0  0  0  0  0  0  0  0  0  0  0  0
   24.2232    8.8713  -12.4516 C   0  0  0  0  0  0  0  0  0  0  0  0
   24.2606    9.5479  -13.6767 C   0  0  0  0  0  0  0  0  0  0  0  0
   22.2927   11.8837  -11.4035 C   0  0  0  0  0  0  0  0  0  0  0  0
   20.6954   11.6587   -7.8784 S   0  0  0  0  0  0  0  0  0  0  0  0
   23.4007    9.6450  -11.5283 C   0  0  0  0  0  0  0  0  0  0  0  0
   23.4092   10.7235  -13.5025 C   0  0  0  0  0  0  0  0  0  0  0  0
   21.8002   11.5567  -10.1741 C   0  0  0  0  0  0  0  0  0  0  0  0
  1  2  2  0
  1 11  1  0
  2  8  1  0
  3  5  1  0
  4 11  1  0
  4 13  1  0
  4 14  1  0
  5 10  2  3
  6 12  1  0
  7  8  2  0
  7 12  1  0
  7 15  1  0
  9 10  1  0
  9 13  1  0
 10 14  1  0
 11 15  2  0
M  END
>  <ID>  (1) 
conformer_0

$$$$
