
     RDKit          3D

 28 30  0  0  0  0  0  0  0  0999 V2000
   22.7368   11.3334  -13.3089 C   0  0  0  0  0  0  0  0  0  0  0  0
   22.6078    9.0302  -13.2217 C   0  0  0  0  0  0  0  0  0  0  0  0
   22.6221    7.6438  -13.2856 C   0  0  0  0  0  0  0  0  0  0  0  0
   19.4101   10.6696   -9.6342 C   0  0  0  0  0  0  0  0  0  0  0  0
   21.4563   10.6564  -11.3326 C   0  0  0  0  0  0  0  0  0  0  0  0
   24.9927    6.3268  -17.5045 O   0  0  0  0  0  1  0  0  0  0  0  0
   21.3804   12.5950   -8.4710 C   0  0  0  0  0  0  0  0  0  0  0  0
   23.4204    9.4818  -14.4593 C   0  0  0  0  0  0  0  0  0  0  0  0
   21.3984   13.7342  -10.7233 C   0  0  0  0  0  0  0  0  0  0  0  0
   22.0706   14.7393  -10.3722 O   0  0  0  0  0  0  0  0  0  0  0  0
   23.1685   13.7287  -13.7770 C   0  0  0  0  0  0  0  0  0  0  0  0
   23.4081   10.8556  -14.4246 C   0  0  0  0  0  0  0  0  0  0  0  0
   26.8994    8.2187  -18.0249 C   0  0  0  0  0  0  0  0  0  0  0  0
   21.6113   11.5402   -6.2967 C   0  0  0  0  0  0  0  0  0  0  0  0
   21.9579   13.5545   -7.9092 O   0  0  0  0  0  0  0  0  0  0  0  0
   22.5456   12.6926  -12.8957 C   0  0  0  0  0  0  0  0  0  0  0  0
   21.4332   13.3657  -12.1609 C   0  0  0  0  0  0  0  0  0  0  0  0
   25.7939    7.4409  -16.7865 S   0  0  0  0  0  4  0  0  0  0  0  0
   21.1776   11.4740   -7.6894 O   0  0  0  0  0  0  0  0  0  0  0  0
   26.6463    6.9737  -15.5968 O   0  0  0  0  0  1  0  0  0  0  0  0
   23.4291    7.2100  -14.4874 C   0  0  0  0  0  0  0  0  0  0  0  0
   20.8252   12.7037   -9.8237 C   0  0  0  0  0  0  0  0  0  0  0  0
   23.8719    8.4394  -15.1113 C   0  0  0  0  0  0  0  0  0  0  0  0
   21.5729    9.3567  -10.4989 C   0  0  0  0  0  0  0  0  0  0  0  0
   22.2316   10.2307  -12.5931 C   0  0  0  0  0  0  0  0  0  0  0  0
   24.6836    8.5158  -16.1978 N   0  0  0  0  0  0  0  0  0  0  0  0
   19.2374   11.8660  -11.6694 C   0  0  0  0  0  0  0  0  0  0  0  0
   20.3364   11.4664  -10.6444 C   0  0  0  0  0  0  0  0  0  0  0  0
  1 12  1  0
  1 16  1  0
  1 25  2  0
  2  3  1  0
  2  8  1  0
  2 25  1  0
  3 21  1  0
  4 28  1  0
  5 24  1  0
  5 25  1  0
  5 28  1  0
  6 18  1  0
  7 15  2  0
  7 19  1  0
  7 22  1  0
  8 12  1  0
  8 23  2  0
  9 10  2  0
  9 17  1  0
  9 22  1  0
 11 16  1  0
 13 18  1  0
 14 19  1  0
 16 17  1  0
 18 20  1  0
 18 26  1  0
 21 23  1  0
 22 28  1  0
 23 26  1  0
 27 28  1  0
M  END
>  <ID>  (1) 
conformer_0

$$$$
