
     RDKit          3D

 24 25  0  0  0  0  0  0  0  0999 V2000
   20.8586   10.1934   -6.9719 C   0  0  0  0  0  0  0  0  0  0  0  0
   21.9315   10.4353  -11.5405 O   0  0  0  0  0  0  0  0  0  0  0  0
   21.2850   12.8409   -9.5311 C   0  0  0  0  0  0  0  0  0  0  0  0
   22.1255   11.3194  -12.5487 C   0  0  0  0  0  0  0  0  0  0  0  0
   21.9824   11.5241  -15.0563 C   0  0  0  0  0  0  0  0  0  0  0  0
   21.2617   11.8195   -8.6930 N   0  0  0  0  0  0  0  0  0  0  0  0
   23.8907    9.2564  -12.8409 C   0  0  0  0  0  0  0  0  0  0  0  0
   22.6524    8.2694  -12.9257 C   0  0  0  0  0  0  0  0  0  0  0  0
   20.8608   12.7187  -10.9113 C   0  0  0  0  0  0  0  0  0  0  0  0
   21.6515   12.7752  -12.2180 C   0  0  0  0  0  0  0  0  0  0  0  0
   22.9663   13.5553  -12.2809 C   0  0  0  0  0  0  0  0  0  0  0  0
   22.9011   11.2750  -13.8726 C   0  0  0  0  0  0  0  0  0  0  0  0
   20.7478   13.3550  -13.3067 C   0  0  0  0  0  0  0  0  0  0  0  0
   22.8653    9.2323  -15.2336 C   0  0  0  0  0  0  0  0  0  0  0  0
   21.9677   10.2776  -15.9093 C   0  0  0  0  0  0  0  0  0  0  0  0
   25.2052    9.6561  -14.7017 C   0  0  0  0  0  0  0  0  0  0  0  0
   21.7787   14.0769   -9.1239 C   0  0  0  0  0  0  0  0  0  0  0  0
   21.9104    8.4086  -14.2782 C   0  0  0  0  0  0  0  0  0  0  0  0
   21.3512   12.3929   -6.4513 O   0  0  0  0  0  0  0  0  0  0  0  0
   22.2824   14.9447  -10.0298 O   0  0  0  0  0  0  0  0  0  0  0  0
   21.1638   11.6057   -7.3638 C   0  0  0  0  0  0  0  0  0  0  0  0
   23.7632   10.0522  -14.2263 C   0  0  0  0  0  0  0  0  0  0  0  0
   19.4637   12.1537  -11.0747 C   0  0  0  0  0  0  0  0  0  0  0  0
   19.1770   11.1734  -11.9457 O   0  0  0  0  0  0  0  0  0  0  0  0
  1 21  1  0
  2  4  1  0
  3  6  1  0
  3  9  1  0
  3 17  1  0
  4 10  1  0
  4 12  1  0
  5 12  1  0
  5 15  1  0
  6 21  1  0
  7  8  1  0
  7 22  1  0
  8 18  1  0
  9 10  1  0
  9 23  1  0
 10 11  1  0
 10 13  1  0
 12 22  1  0
 14 15  1  0
 14 18  1  0
 14 22  1  0
 16 22  1  0
 17 20  1  0
 19 21  2  0
 23 24  1  0
M  END
>  <ID>  (1) 
conformer_0

$$$$
