
     RDKit          3D

 30 31  0  0  0  0  0  0  0  0999 V2000
   23.2600   12.6868  -11.2012 O   0  0  0  0  0  1  0  0  0  0  0  0
   19.4315   13.5846  -11.0106 O   0  0  0  0  0  0  0  0  0  0  0  0
   23.2957    8.8310  -10.5454 C   0  0  0  0  0  0  0  0  0  0  0  0
   21.1600   10.9768   -6.7132 N   0  0  0  0  0  0  0  0  0  0  0  0
   26.0369    7.3337  -16.5511 S   0  0  0  0  0  4  0  0  0  0  0  0
   20.5400   12.8710  -11.3604 C   0  0  0  0  0  0  0  0  0  0  0  0
   22.2659   10.2651  -13.0005 C   0  0  0  0  0  0  0  0  0  0  0  0
   21.8085    8.6197  -11.2045 C   0  0  0  0  0  0  0  0  0  0  0  0
   22.0901   13.0629   -6.5605 O   0  0  0  0  0  0  0  0  0  0  0  0
   23.1297    9.4481  -13.8343 C   0  0  0  0  0  0  0  0  0  0  0  0
   20.3689   11.8943  -12.4921 C   0  0  0  0  0  0  0  0  0  0  0  0
   21.9070   13.7192   -9.2615 C   0  0  0  0  0  0  0  0  0  0  0  0
   23.7028    7.4387  -15.0528 C   0  0  0  0  0  0  0  0  0  0  0  0
   21.4234   12.3602   -8.6665 C   0  0  0  0  0  0  0  0  0  0  0  0
   20.8867   11.2818   -9.2556 C   0  0  0  0  0  0  0  0  0  0  0  0
   21.5688   12.1818   -7.2452 C   0  0  0  0  0  0  0  0  0  0  0  0
   24.9190    8.0371  -15.4296 C   0  0  0  0  0  0  0  0  0  0  0  0
   20.5447   10.1323   -8.7991 N   0  0  0  0  0  0  0  0  0  0  0  0
   22.8023    8.1481  -14.2660 C   0  0  0  0  0  0  0  0  0  0  0  0
   22.0003   13.5221  -10.9530 P   0  0  0  0  0  4  0  0  0  0  0  0
   20.6620    9.9649   -7.4990 C   0  0  0  0  0  0  0  0  0  0  0  0
   27.0379    6.5077  -15.8085 O   0  0  0  0  0  0  0  0  0  0  0  0
   24.3476   10.0308  -14.2267 C   0  0  0  0  0  0  0  0  0  0  0  0
   20.2269   10.4980  -11.9615 C   0  0  0  0  0  0  0  0  0  0  0  0
   21.4354    9.7944  -11.9909 N   0  0  0  0  0  0  0  0  0  0  0  0
   25.2296    9.3048  -14.9655 C   0  0  0  0  0  0  0  0  0  0  0  0
   19.1525    9.9933  -11.6481 O   0  0  0  0  0  0  0  0  0  0  0  0
   26.6936    8.4222  -17.3501 O   0  0  0  0  0  0  0  0  0  0  0  0
   22.0704   14.7998  -11.9544 O   0  0  0  0  0  0  0  0  0  0  0  0
   25.1585    6.4750  -17.4570 O   0  0  0  0  0  0  0  0  0  0  0  0
  1 20  2  0
  2  6  1  0
  3  8  1  0
  4 16  1  0
  4 21  2  0
  5 17  1  0
  5 22  1  0
  5 28  1  0
  5 30  1  0
  6 11  1  0
  6 20  1  0
  7 10  1  0
  7 25  1  0
  8 25  1  0
  9 16  2  0
 10 19  2  0
 10 23  1  0
 11 24  1  0
 12 14  1  0
 12 20  1  0
 13 17  2  0
 13 19  1  0
 14 15  1  0
 14 16  1  0
 15 18  2  0
 17 26  1  0
 18 21  1  0
 20 29  1  0
 23 26  2  0
 24 25  1  0
 24 27  2  0
M  END
>  <ID>  (1) 
conformer_0

$$$$
