
     RDKit          3D

 25 27  0  0  0  0  0  0  0  0999 V2000
   19.6097   13.6589  -10.6874 O   0  0  0  0  0  0  0  0  0  0  0  0
   21.9284   10.5758  -13.1389 C   0  0  0  0  0  0  0  0  0  0  0  0
   20.6045   10.2324  -10.7375 C   0  0  0  0  0  0  0  0  0  0  0  0
   22.1030   13.6082  -10.2350 C   0  0  0  0  0  0  0  0  0  0  0  0
   21.1851    9.1158  -11.4013 C   0  0  0  0  0  0  0  0  0  0  0  0
   23.2555   12.9862  -10.3177 O   0  0  0  0  0  0  0  0  0  0  0  0
   20.3984   12.3802   -8.8146 N   0  0  0  0  0  0  0  0  0  0  0  0
   22.4801   10.7299  -14.4197 C   0  0  0  0  0  0  0  0  0  0  0  0
   23.6536    8.6466  -14.2626 C   0  0  0  0  0  0  0  0  0  0  0  0
   21.5047   11.5856  -15.6189 Cl  0  0  0  0  0  0  0  0  0  0  0  0
   20.7360   12.8095  -10.2401 C   0  0  0  0  0  0  0  0  0  0  0  0
   23.5071    5.9693  -13.6749 C   0  0  0  0  0  0  0  0  0  0  0  0
   20.9572   10.6347   -6.7498 C   0  0  0  0  0  0  0  0  0  0  0  0
   22.1114   14.8838  -10.2168 O   0  0  0  0  0  0  0  0  0  0  0  0
   22.6960    6.8783  -12.9808 C   0  0  0  0  0  0  0  0  0  0  0  0
   21.4925   12.1175   -6.6497 C   0  0  0  0  0  0  0  0  0  0  0  0
   24.6302    7.7140  -14.7709 C   0  0  0  0  0  0  0  0  0  0  0  0
   23.5678    9.9457  -14.8342 C   0  0  0  0  0  0  0  0  0  0  0  0
   21.3733   12.9605   -7.8228 C   0  0  0  0  0  0  0  0  0  0  0  0
   26.0287    8.2933  -15.6201 Cl  0  0  0  0  0  0  0  0  0  0  0  0
   22.7432    8.2555  -13.2284 C   0  0  0  0  0  0  0  0  0  0  0  0
   24.5012    6.3577  -14.5495 N   0  0  0  0  0  0  0  0  0  0  0  0
   20.8512   11.5662  -11.1801 C   0  0  0  0  0  0  0  0  0  0  0  0
   21.3586   11.6576  -12.4751 C   0  0  0  0  0  0  0  0  0  0  0  0
   21.9618    9.2507  -12.5690 C   0  0  0  0  0  0  0  0  0  0  0  0
  1 11  1  0
  2  8  1  0
  2 24  2  0
  2 25  1  0
  3  5  1  0
  3 23  1  0
  4  6  2  0
  4 11  1  0
  4 14  1  0
  5 25  2  0
  7 11  1  0
  7 19  1  0
  8 10  1  0
  8 18  1  0
  9 17  1  0
  9 18  2  0
  9 21  1  0
 11 23  1  0
 12 15  1  0
 12 22  2  0
 13 16  1  0
 15 21  2  0
 16 19  1  0
 17 20  1  0
 17 22  1  0
 21 25  1  0
 23 24  1  0
M  END
>  <ID>  (1) 
conformer_0

$$$$
