
     RDKit          3D

 30 34  0  0  0  0  0  0  0  0999 V2000
   20.9902   10.8505  -11.0674 C   0  0  0  0  0  0  0  0  0  0  0  0
   20.9529   13.2807  -16.2550 C   0  0  0  0  0  0  0  0  0  0  0  0
   21.7535   14.1859  -12.8225 C   0  0  0  0  0  0  0  0  0  0  0  0
   25.9357   10.6497  -16.5072 C   0  0  0  0  0  0  0  0  0  0  0  0
   19.6995   10.7605  -11.5538 O   0  0  0  0  0  0  0  0  0  0  0  0
   21.3500   11.8695   -6.7990 C   0  0  0  0  0  0  0  0  0  0  0  0
   21.4577    8.5529  -12.0683 C   0  0  0  0  0  0  0  0  0  0  0  0
   21.8475   14.3693  -10.4686 N   0  0  0  0  0  0  0  0  0  0  0  0
   23.0369   12.2537  -15.1580 C   0  0  0  0  0  0  0  0  0  0  0  0
   21.8925    9.8106  -11.6968 C   0  0  0  0  0  0  0  0  0  0  0  0
   22.2834    7.6520  -12.7081 C   0  0  0  0  0  0  0  0  0  0  0  0
   20.7162   12.3956  -15.0205 C   0  0  0  0  0  0  0  0  0  0  0  0
   26.0766    9.7184  -15.3741 C   0  0  0  0  0  0  0  0  0  0  0  0
   21.0217   10.9627   -9.5100 C   0  0  0  0  0  0  0  0  0  0  0  0
   21.8023   14.9168  -11.7081 C   0  0  0  0  0  0  0  0  0  0  0  0
   21.5078   12.2322  -11.5225 N   0  0  0  0  0  0  0  0  0  0  0  0
   21.6910   12.6757   -7.8947 C   0  0  0  0  0  0  0  0  0  0  0  0
   21.7352   12.4445  -17.1670 O   0  0  0  0  0  0  0  0  0  0  0  0
   20.8163   10.6317   -7.0722 C   0  0  0  0  0  0  0  0  0  0  0  0
   22.6272   11.5836  -16.4442 C   0  0  0  0  0  0  0  0  0  0  0  0
   23.8235   11.0141  -15.4430 C   0  0  0  0  0  0  0  0  0  0  0  0
   23.2111   10.1196  -11.9315 C   0  0  0  0  0  0  0  0  0  0  0  0
   23.6072    7.9861  -12.9800 C   0  0  0  0  0  0  0  0  0  0  0  0
   21.9551   12.2424  -14.2180 N   0  0  0  0  0  0  0  0  0  0  0  0
   20.6915   10.1849   -8.4154 C   0  0  0  0  0  0  0  0  0  0  0  0
   24.0459    9.2252  -12.5676 C   0  0  0  0  0  0  0  0  0  0  0  0
   21.7473   12.7594  -12.8520 C   0  0  0  0  0  0  0  0  0  0  0  0
   21.4775   12.2720   -9.1774 C   0  0  0  0  0  0  0  0  0  0  0  0
   24.8526   11.3425  -16.3805 N   0  0  0  0  0  0  0  0  0  0  0  0
   21.6675   13.0474  -10.3662 C   0  0  0  0  0  0  0  0  0  0  0  0
  1  5  1  0
  1 10  1  0
  1 14  1  0
  1 16  1  0
  2 12  1  0
  2 18  1  0
  3 15  2  0
  3 27  1  0
  4 13  1  0
  4 29  1  0
  6 17  1  0
  6 19  2  0
  7 10  2  0
  7 11  1  0
  8 15  1  0
  8 30  2  0
  9 20  1  0
  9 21  1  0
  9 24  1  0
 10 22  1  0
 11 23  2  0
 12 24  1  0
 14 25  2  0
 14 28  1  0
 16 27  1  0
 16 30  1  0
 17 28  2  0
 18 20  1  0
 19 25  1  0
 21 29  1  0
 22 26  2  0
 23 26  1  0
 24 27  1  0
 28 30  1  0
M  END
>  <ID>  (1) 
conformer_0

$$$$
