
     RDKit          3D

 27 28  0  0  0  0  0  0  0  0999 V2000
   20.3939   10.6245   -8.3686 C   0  0  0  0  0  0  0  0  0  0  0  0
   22.4620   10.6068  -12.9153 N   0  0  0  0  0  0  0  0  0  0  0  0
   21.9102   12.8988  -11.8457 C   0  0  0  0  0  0  0  0  0  0  0  0
   24.7387    8.7801  -13.4457 C   0  0  0  0  0  0  0  0  0  0  0  0
   21.5555   11.7788   -6.4308 C   0  0  0  0  0  0  0  0  0  0  0  0
   21.5980   14.5888  -14.7501 N   0  0  0  0  0  0  0  0  0  0  0  0
   22.7515    9.3655  -10.9524 N   0  0  0  0  0  0  0  0  0  0  0  0
   23.5892    6.7597  -15.0296 C   0  0  0  0  0  0  0  0  0  0  0  0
   21.1165   13.9756  -11.4043 O   0  0  0  0  0  0  0  0  0  0  0  0
   25.3282    8.4179  -14.6492 C   0  0  0  0  0  0  0  0  0  0  0  0
   22.5548   10.6217  -11.5890 C   0  0  0  0  0  0  0  0  0  0  0  0
   22.5415   14.0404  -14.0225 C   0  0  0  0  0  0  0  0  0  0  0  0
   21.7536   12.7978   -8.6948 C   0  0  0  0  0  0  0  0  0  0  0  0
   22.9713    7.1522  -13.8575 C   0  0  0  0  0  0  0  0  0  0  0  0
   21.1722   10.7891   -5.6926 O   0  0  0  0  0  0  0  0  0  0  0  0
   22.4716   12.6485   -6.0891 O   0  0  0  0  0  0  0  0  0  0  0  0
   23.0305    8.2476  -11.7036 C   0  0  0  0  0  0  0  0  0  0  0  0
   20.8460   11.9838   -7.7706 C   0  0  0  0  0  0  0  0  0  0  0  0
   22.1524   12.8456  -13.2397 C   0  0  0  0  0  0  0  0  0  0  0  0
   22.4409   12.0988   -9.6123 N   0  0  0  0  0  0  0  0  0  0  0  0
   24.7792    7.3762  -15.4257 C   0  0  0  0  0  0  0  0  0  0  0  0
   21.8418   14.0355   -8.5343 O   0  0  0  0  0  0  0  0  0  0  0  0
   23.5705    8.1322  -13.0263 C   0  0  0  0  0  0  0  0  0  0  0  0
   22.1236   11.5408  -13.7691 C   0  0  0  0  0  0  0  0  0  0  0  0
   21.6581   11.1478  -15.1330 C   0  0  0  0  0  0  0  0  0  0  0  0
   22.2944   11.8620  -10.9587 C   0  0  0  0  0  0  0  0  0  0  0  0
   23.7102   14.4459  -13.9726 O   0  0  0  0  0  0  0  0  0  0  0  0
  1 18  1  0
  2 11  2  0
  2 24  1  0
  3  9  1  0
  3 19  1  0
  3 26  1  0
  4 10  2  0
  4 23  1  0
  5 15  2  0
  5 16  1  0
  5 18  1  0
  6 12  1  0
  7 11  1  0
  7 17  1  0
  8 14  2  0
  8 21  1  0
 10 21  1  0
 11 26  1  0
 12 19  1  0
 12 27  2  0
 13 18  1  0
 13 20  1  0
 13 22  2  0
 14 23  1  0
 17 23  1  0
 19 24  1  0
 20 26  1  0
 24 25  1  0
M  END
>  <ID>  (1) 
conformer_0

$$$$
