
     RDKit          3D

 29 32  0  0  0  0  0  0  0  0999 V2000
   24.6821    8.7275  -13.6245 C   0  0  0  0  0  0  0  0  0  0  0  0
   21.7596   10.1441  -16.0496 O   0  0  0  0  0  0  0  0  0  0  0  0
   21.3051   12.8067   -9.1846 C   0  0  0  0  0  0  0  0  0  0  0  0
   21.4454   11.8480  -12.8833 C   0  0  0  0  0  0  0  0  0  0  0  0
   22.0442   11.4660  -16.1466 C   0  0  0  0  0  0  0  0  0  0  0  0
   23.3954   11.9656  -15.7631 C   0  0  0  0  0  0  0  0  0  0  0  0
   25.6647   12.0450  -16.3050 O   0  0  0  0  0  0  0  0  0  0  0  0
   21.5223   12.6639  -11.6309 C   0  0  0  0  0  0  0  0  0  0  0  0
   23.2432   12.6869  -14.4595 C   0  0  0  0  0  0  0  0  0  0  0  0
   20.8504   10.0392   -6.4815 C   0  0  0  0  0  0  0  0  0  0  0  0
   23.0085    9.0374  -11.9907 C   0  0  0  0  0  0  0  0  0  0  0  0
   19.4263   10.5120   -8.6723 O   0  0  0  0  0  0  0  0  0  0  0  0
   21.8015   10.0737   -8.9858 N   0  0  0  0  0  0  0  0  0  0  0  0
   24.6019   10.1174  -16.6345 O   0  0  0  0  0  0  0  0  0  0  0  0
   21.9831   10.6668  -10.2180 C   0  0  0  0  0  0  0  0  0  0  0  0
   24.0030    7.6314  -14.1024 C   0  0  0  0  0  0  0  0  0  0  0  0
   21.8188   12.6187  -14.0906 C   0  0  0  0  0  0  0  0  0  0  0  0
   21.0462   12.1919  -15.2801 C   0  0  0  0  0  0  0  0  0  0  0  0
   22.3617    7.8851  -12.3986 C   0  0  0  0  0  0  0  0  0  0  0  0
   24.2290    9.4264  -12.5634 C   0  0  0  0  0  0  0  0  0  0  0  0
   21.0223   12.2303   -7.9788 N   0  0  0  0  0  0  0  0  0  0  0  0
   20.7425   10.6909   -8.0690 S   0  0  0  0  0  4  0  0  0  0  0  0
   21.2535   14.2077   -9.2831 C   0  0  0  0  0  0  0  0  0  0  0  0
   21.6061   12.0659  -10.3309 C   0  0  0  0  0  0  0  0  0  0  0  0
   21.3511   14.8415  -10.5364 C   0  0  0  0  0  0  0  0  0  0  0  0
   22.8575    7.2082  -13.4761 C   0  0  0  0  0  0  0  0  0  0  0  0
   22.4400    9.8685  -11.1026 N   0  0  0  0  0  0  0  0  0  0  0  0
   21.4451   14.0648  -11.6685 C   0  0  0  0  0  0  0  0  0  0  0  0
   24.6361   11.3206  -16.2185 C   0  0  0  0  0  0  0  0  0  0  0  0
  1 16  2  0
  1 20  1  0
  2  5  1  0
  3 21  1  0
  3 23  2  0
  3 24  1  0
  4  8  1  0
  4 17  1  0
  5  6  1  0
  5 18  1  0
  6  9  1  0
  6 29  1  0
  7 29  2  0
  8 24  1  0
  8 28  1  0
  9 17  1  0
 10 22  1  0
 11 19  1  0
 11 20  2  0
 11 27  1  0
 12 22  1  0
 13 15  1  0
 13 22  1  0
 14 29  1  0
 15 24  2  0
 15 27  1  0
 16 26  1  0
 17 18  1  0
 19 26  2  0
 21 22  1  0
 23 25  1  0
 25 28  2  0
M  END
>  <ID>  (1) 
conformer_0

$$$$
