
     RDKit          3D

 35 38  0  0  0  0  0  0  0  0999 V2000
   21.3183   14.2811  -11.8210 C   0  0  0  0  0  0  0  0  0  0  0  0
   21.5234    9.3396  -13.5224 C   0  0  0  0  0  0  0  0  0  0  0  0
   20.7850   12.9326  -11.6592 C   0  0  0  0  0  0  0  0  0  0  0  0
   21.9345   15.0182  -10.8701 O   0  0  0  0  0  0  0  0  0  0  0  0
   21.0888   11.9528   -6.5825 N   0  0  0  0  0  0  0  0  0  0  0  0
   22.7806    8.6520  -13.8274 C   0  0  0  0  0  0  0  0  0  0  0  0
   21.2660   13.3389   -8.3474 O   0  0  0  0  0  0  0  0  0  0  0  0
   19.0490   11.3648  -11.4349 C   0  0  0  0  0  0  0  0  0  0  0  0
   22.3945   12.7449  -14.9148 C   0  0  0  0  0  0  0  0  0  0  0  0
   21.9201    9.2435  -10.9393 C   0  0  0  0  0  0  0  0  0  0  0  0
   20.8851   10.1601   -5.1037 O   0  0  0  0  0  0  0  0  0  0  0  0
   21.0323    9.9498   -7.4850 C   0  0  0  0  0  0  0  0  0  0  0  0
   25.0645    8.6854  -14.6038 C   0  0  0  0  0  0  0  0  0  0  0  0
   23.8136    5.2448  -14.7035 O   0  0  0  0  0  0  0  0  0  0  0  0
   19.8038   10.1435  -11.9577 C   0  0  0  0  0  0  0  0  0  0  0  0
   20.0679   12.1836  -10.6098 C   0  0  0  0  0  0  0  0  0  0  0  0
   20.9359   11.2018   -9.9734 C   0  0  0  0  0  0  0  0  0  0  0  0
   22.4974    8.1312  -10.8492 O   0  0  0  0  0  0  0  0  0  0  0  0
   21.1561   12.2198   -7.9186 C   0  0  0  0  0  0  0  0  0  0  0  0
   21.0110   10.6396   -6.2667 C   0  0  0  0  0  0  0  0  0  0  0  0
   20.9747   12.2565  -12.8631 O   0  0  0  0  0  0  0  0  0  0  0  0
   21.8764   14.3913  -13.1944 C   0  0  0  0  0  0  0  0  0  0  0  0
   23.8629    6.5965  -14.4799 C   0  0  0  0  0  0  0  0  0  0  0  0
   21.2320    9.7192  -12.1631 C   0  0  0  0  0  0  0  0  0  0  0  0
   21.1227   10.8969   -8.6652 N   0  0  0  0  0  0  0  0  0  0  0  0
   21.5469   10.0398   -9.8012 C   0  0  0  0  0  0  0  0  0  0  0  0
   22.4738   15.3047  -14.1415 C   0  0  0  0  0  0  0  0  0  0  0  0
   22.7764    7.2628  -13.9679 C   0  0  0  0  0  0  0  0  0  0  0  0
   25.0109    7.3200  -14.8285 C   0  0  0  0  0  0  0  0  0  0  0  0
   26.0115    6.7057  -15.4864 O   0  0  0  0  0  0  0  0  0  0  0  0
   21.3191   13.1512  -13.9256 C   0  0  0  0  0  0  0  0  0  0  0  0
   22.1417   12.8211  -16.1159 O   0  0  0  0  0  0  0  0  0  0  0  0
   23.9504    9.3473  -14.0745 C   0  0  0  0  0  0  0  0  0  0  0  0
   23.5142   12.5807  -14.4112 O   0  0  0  0  0  0  0  0  0  0  0  0
   26.1743    9.4059  -14.9740 O   0  0  0  0  0  0  0  0  0  0  0  0
  1  3  1  0
  1  4  1  0
  1 22  1  0
  2  6  1  0
  2 24  2  3
  3 16  1  0
  3 21  1  0
  5 19  1  0
  5 20  1  0
  6 28  1  0
  6 33  2  0
  7 19  2  0
  8 15  1  0
  8 16  1  0
  9 31  1  0
  9 32  2  0
  9 34  1  0
 10 18  2  0
 10 24  1  0
 10 26  1  0
 11 20  2  0
 12 20  1  0
 12 25  1  0
 13 29  2  0
 13 33  1  0
 13 35  1  0
 14 23  1  0
 15 24  1  0
 16 17  1  0
 17 25  1  0
 17 26  1  0
 19 25  1  0
 21 31  1  0
 22 27  1  0
 22 31  1  0
 23 28  2  0
 23 29  1  0
 29 30  1  0
M  END
>  <ID>  (1) 
conformer_0

$$$$
