
     RDKit          3D

 30 31  0  0  0  0  0  0  0  0999 V2000
   23.7756    9.8094  -14.2890 C   0  0  0  0  0  0  0  0  0  0  0  0
   20.2348   12.8198  -12.4263 C   0  0  0  0  0  0  0  0  0  0  0  0
   23.8314    7.2967  -14.0303 C   0  0  0  0  0  0  0  0  0  0  0  0
   20.5703   10.4753   -6.5464 N   0  0  0  0  0  0  0  0  0  0  0  0
   20.7610   10.8801   -7.8063 C   0  0  0  0  0  0  0  0  0  0  0  0
   23.7719    8.6352  -13.5268 C   0  0  0  0  0  0  0  0  0  0  0  0
   22.2787   13.4606  -13.8615 C   0  0  0  0  0  0  0  0  0  0  0  0
   23.3213   10.8468  -13.4790 C   0  0  0  0  0  0  0  0  0  0  0  0
   21.6949   13.0493   -7.3905 O   0  0  0  0  0  0  0  0  0  0  0  0
   22.2459   14.3101   -9.8405 O   0  0  0  0  0  0  0  0  0  0  0  0
   21.3889   13.4584  -10.2134 C   0  0  0  0  0  0  0  0  0  0  0  0
   21.1656   10.0376   -8.6610 O   0  0  0  0  0  0  0  0  0  0  0  0
   20.7510    9.2264   -6.0108 O   0  0  0  0  0  0  0  0  0  0  0  0
   22.4923   13.8405  -12.3608 C   0  0  0  0  0  0  0  0  0  0  0  0
   23.4204    9.0178  -12.2001 C   0  0  0  0  0  0  0  0  0  0  0  0
   21.5305   12.9351  -11.6286 C   0  0  0  0  0  0  0  0  0  0  0  0
   23.6103   11.3544  -16.3318 C   0  0  0  0  0  0  0  0  0  0  0  0
   24.1331   10.1201  -15.7095 C   0  0  0  0  0  0  0  0  0  0  0  0
   20.9844   10.8657  -15.7947 C   0  0  0  0  0  0  0  0  0  0  0  0
   23.1676   10.3630  -12.2062 C   0  0  0  0  0  0  0  0  0  0  0  0
   26.0062    7.9398  -14.9212 O   0  0  0  0  0  0  0  0  0  0  0  0
   19.4540   10.9872  -10.9701 C   0  0  0  0  0  0  0  0  0  0  0  0
   20.9561   12.2962   -8.0671 C   0  0  0  0  0  0  0  0  0  0  0  0
   19.2367   11.6971  -12.2717 C   0  0  0  0  0  0  0  0  0  0  0  0
   24.4653   12.3873  -16.4922 O   0  0  0  0  0  0  0  0  0  0  0  0
   23.0452   12.1848  -13.9357 C   0  0  0  0  0  0  0  0  0  0  0  0
   24.7765    7.1521  -15.1591 C   0  0  0  0  0  0  0  0  0  0  0  0
   20.5396   12.6711   -9.3348 N   0  0  0  0  0  0  0  0  0  0  0  0
   22.1026   11.4357  -16.5932 C   0  0  0  0  0  0  0  0  0  0  0  0
   19.3311   11.9474   -9.8202 C   0  0  0  0  0  0  0  0  0  0  0  0
  1  6  1  0
  1  8  2  0
  1 18  1  0
  2 16  1  0
  2 24  1  0
  3  6  1  0
  3 27  1  0
  4  5  1  0
  4 13  1  0
  5 12  2  0
  5 23  1  0
  6 15  1  0
  7 14  1  0
  7 26  1  0
  8 20  1  0
  8 26  1  0
  9 23  2  0
 10 11  2  0
 11 16  1  0
 11 28  1  0
 14 16  1  0
 15 20  1  0
 17 18  1  0
 17 25  1  0
 17 29  1  0
 19 29  1  0
 21 27  1  0
 22 24  1  0
 22 30  1  0
 23 28  1  0
 28 30  1  0
M  END
>  <ID>  (1) 
conformer_0

$$$$
