
     RDKit          3D

 32 36  0  0  0  0  0  0  0  0999 V2000
   25.0502    8.7613  -15.8221 C   0  0  0  0  0  0  0  0  0  0  0  0
   25.9711    8.2243  -16.7286 C   0  0  0  0  0  0  0  0  0  0  0  0
   21.7958   13.5962  -11.0376 C   0  0  0  0  0  0  0  0  0  0  0  0
   22.7098   13.2758  -14.6638 C   0  0  0  0  0  0  0  0  0  0  0  0
   20.8432   11.7702   -9.4251 C   0  0  0  0  0  0  0  0  0  0  0  0
   20.2412   11.0417  -10.3876 C   0  0  0  0  0  0  0  0  0  0  0  0
   21.6919   13.2929   -7.3110 N   0  0  0  0  0  0  0  0  0  0  0  0
   25.7547    6.0413  -15.7621 C   0  0  0  0  0  0  0  0  0  0  0  0
   21.2562   12.0046   -7.0975 C   0  0  0  0  0  0  0  0  0  0  0  0
   25.7126   11.1398  -16.0403 C   0  0  0  0  0  0  0  0  0  0  0  0
   22.5768    8.3545  -11.8134 C   0  0  0  0  0  0  0  0  0  0  0  0
   22.3768   12.9610  -12.2561 C   0  0  0  0  0  0  0  0  0  0  0  0
   24.6759   10.1450  -15.8407 C   0  0  0  0  0  0  0  0  0  0  0  0
   20.2972    9.2240  -11.8543 O   0  0  0  0  0  0  0  0  0  0  0  0
   21.4628   13.0323   -9.6800 C   0  0  0  0  0  0  0  0  0  0  0  0
   24.8556    6.5249  -14.8341 C   0  0  0  0  0  0  0  0  0  0  0  0
   21.8561   13.6552  -13.5271 C   0  0  0  0  0  0  0  0  0  0  0  0
   23.0158   11.8912  -14.9994 N   0  0  0  0  0  0  0  0  0  0  0  0
   21.7836   13.7980   -8.5776 C   0  0  0  0  0  0  0  0  0  0  0  0
   21.5910    9.1529  -12.3479 C   0  0  0  0  0  0  0  0  0  0  0  0
   23.5597   10.5938  -15.0708 C   0  0  0  0  0  0  0  0  0  0  0  0
   21.6255   14.9450  -11.3053 O   0  0  0  0  0  0  0  0  0  0  0  0
   23.4722    7.8139  -12.6707 N   0  0  0  0  0  0  0  0  0  0  0  0
   26.3184    6.8956  -16.6968 C   0  0  0  0  0  0  0  0  0  0  0  0
   23.6669    8.4376  -13.8736 C   0  0  0  0  0  0  0  0  0  0  0  0
   23.0012    9.6531  -14.1341 C   0  0  0  0  0  0  0  0  0  0  0  0
   18.7204   10.9322  -12.0993 F   0  0  0  0  0  0  0  0  0  0  0  0
   24.5261    7.8767  -14.8401 C   0  0  0  0  0  0  0  0  0  0  0  0
   21.9098    9.8768  -13.4371 C   0  0  0  0  0  0  0  0  0  0  0  0
   22.9779    8.3070  -10.4183 C   0  0  0  0  0  0  0  0  0  0  0  0
   19.7027   10.3848  -11.4046 C   0  0  0  0  0  0  0  0  0  0  0  0
   20.8412   11.2043   -8.1065 C   0  0  0  0  0  0  0  0  0  0  0  0
  1  2  2  0
  1 13  1  0
  1 28  1  0
  2 24  1  0
  3 12  1  0
  3 15  1  0
  3 22  1  0
  4 17  1  0
  4 18  1  0
  5  6  2  0
  5 15  1  0
  5 32  1  0
  6 31  2  0
  7  9  1  0
  7 19  2  0
  8 16  1  0
  8 24  2  0
  9 32  2  0
 10 13  1  0
 11 20  1  0
 11 23  1  0
 11 30  1  0
 12 17  1  0
 13 21  1  0
 14 20  1  0
 14 31  1  0
 15 19  1  0
 16 28  2  0
 18 21  1  0
 20 29  1  0
 21 26  1  0
 23 25  2  0
 25 26  1  0
 25 28  1  0
 26 29  2  0
 27 31  1  0
M  END
>  <ID>  (1) 
conformer_0

$$$$
