
     RDKit          3D

 21 21  0  0  0  0  0  0  0  0999 V2000
   20.6707   13.8475  -11.4737 N   0  0  0  0  0  0  0  0  0  0  0  0
   21.7422   13.2312  -11.0052 C   0  0  0  0  0  0  0  0  0  0  0  0
   21.5084   12.2189   -8.2302 C   0  0  0  0  0  0  0  0  0  0  0  0
   21.5128   11.1018   -9.1735 C   0  0  0  0  0  0  0  0  0  0  0  0
   21.6271   11.7973   -6.7609 C   0  0  0  0  0  0  0  0  0  0  0  0
   22.5212   13.8225  -10.2595 O   0  0  0  0  0  0  0  0  0  0  0  0
   21.6057   10.7176  -10.6775 C   0  0  0  0  0  0  0  0  0  0  0  0
   20.8142   11.3600  -13.4491 O   0  0  0  0  0  0  0  0  0  0  0  0
   24.1167    9.3358  -15.1666 C   0  0  0  0  0  0  0  0  0  0  0  0
   23.8224    9.8284  -12.5328 C   0  0  0  0  0  0  0  0  0  0  0  0
   24.9072    9.1005  -12.9332 N   0  0  0  0  0  0  0  0  0  0  0  0
   26.3243    8.5033  -14.8038 C   0  0  0  0  0  0  0  0  0  0  0  0
   23.0099   10.0022  -14.7118 C   0  0  0  0  0  0  0  0  0  0  0  0
   20.5119   13.0937   -8.2265 O   0  0  0  0  0  0  0  0  0  0  0  0
   21.9232   10.1891  -15.6727 C   0  0  0  0  0  0  0  0  0  0  0  0
   22.9749   10.4140  -13.3810 N   0  0  0  0  0  0  0  0  0  0  0  0
   22.0537   11.6029  -13.0172 C   0  0  0  0  0  0  0  0  0  0  0  0
   20.1660   10.1272  -11.1131 C   0  0  0  0  0  0  0  0  0  0  0  0
   22.6893   12.8152  -13.6910 C   0  0  0  0  0  0  0  0  0  0  0  0
   22.0509   11.8610  -11.5107 C   0  0  0  0  0  0  0  0  0  0  0  0
   25.1086    8.9806  -14.2908 C   0  0  0  0  0  0  0  0  0  0  0  0
  1  2  1  0
  2  6  2  0
  2 20  1  0
  3  4  1  0
  3  5  1  0
  3 14  1  0
  4  7  1  0
  7 18  1  0
  7 20  1  0
  8 17  1  0
  9 13  2  0
  9 21  1  0
 10 11  2  0
 10 16  1  0
 11 21  1  0
 12 21  1  0
 13 15  1  0
 13 16  1  0
 16 17  1  0
 17 19  1  0
 17 20  1  0
M  END
>  <ID>  (1) 
conformer_0

$$$$
