
     RDKit          3D

 25 25  0  0  0  0  0  0  0  0999 V2000
   20.7419   12.6920   -9.4753 C   0  0  0  0  0  0  0  0  0  0  0  0
   21.4493   13.0359  -11.8426 C   0  0  0  0  0  0  0  0  0  0  0  0
   21.8697   13.3828  -10.3706 C   0  0  0  0  0  0  0  0  0  0  0  0
   22.5095   12.4443  -13.9710 C   0  0  0  0  0  0  0  0  0  0  0  0
   22.8878    8.2704  -15.2131 C   0  0  0  0  0  0  0  0  0  0  0  0
   20.7384   11.1949   -9.7039 C   0  0  0  0  0  0  0  0  0  0  0  0
   20.6099   10.6579  -11.1082 C   0  0  0  0  0  0  0  0  0  0  0  0
   23.1742   11.0673  -13.6697 C   0  0  0  0  0  0  0  0  0  0  0  0
   22.3060    7.8079  -11.4234 C   0  0  0  0  0  0  0  0  0  0  0  0
   23.0984   12.7790  -10.0717 O   0  0  0  0  0  0  0  0  0  0  0  0
   21.8890   14.7608  -10.3508 O   0  0  0  0  0  0  0  0  0  0  0  0
   24.2856    8.5751  -14.6334 C   0  0  0  0  0  0  0  0  0  0  0  0
   21.5836   12.4286   -7.1129 C   0  0  0  0  0  0  0  0  0  0  0  0
   22.9986    8.5279  -12.5168 C   0  0  0  0  0  0  0  0  0  0  0  0
   20.7509   11.7325  -12.2013 C   0  0  0  0  0  0  0  0  0  0  0  0
   22.5554    8.4424  -10.1538 O   0  0  0  0  0  0  0  0  0  0  0  0
   19.1316   10.2021  -11.3127 C   0  0  0  0  0  0  0  0  0  0  0  0
   22.5838    9.8959  -12.8407 C   0  0  0  0  0  0  0  0  0  0  0  0
   26.0671   10.0187  -15.3055 O   0  0  0  0  0  0  0  0  0  0  0  0
   24.1955    8.0904  -13.2125 C   0  0  0  0  0  0  0  0  0  0  0  0
   26.5019    7.8502  -15.2100 O   0  0  0  0  0  0  0  0  0  0  0  0
   20.1609   10.3834   -8.7894 O   0  0  0  0  0  0  0  0  0  0  0  0
   25.7418    8.7955  -15.0599 C   0  0  0  0  0  0  0  0  0  0  0  0
   20.7441   13.2379   -8.1209 C   0  0  0  0  0  0  0  0  0  0  0  0
   22.6115   13.2439  -12.7075 O   0  0  0  0  0  0  0  0  0  0  0  0
  1  3  1  0
  1  6  1  0
  1 24  1  0
  2  3  1  0
  2 15  1  0
  2 25  1  0
  3 10  1  0
  3 11  1  0
  4  8  1  0
  4 25  1  0
  5 12  1  0
  6  7  1  0
  6 22  1  0
  7 15  1  0
  7 17  1  0
  8 18  1  0
  9 14  1  0
  9 16  1  0
 12 20  1  0
 12 23  1  0
 13 24  1  0
 14 18  2  3
 14 20  1  0
 19 23  2  0
 21 23  1  0
M  END
>  <ID>  (1) 
conformer_0

$$$$
