
     RDKit          3D

 21 21  0  0  0  0  0  0  0  0999 V2000
   21.6821    9.1262  -15.3831 C   0  0  0  0  0  0  0  0  0  0  0  0
   21.1603   11.7329   -9.4595 C   0  0  0  0  0  0  0  0  0  0  0  0
   21.5403   12.0747   -6.0327 N   0  0  0  0  0  0  0  0  0  0  0  0
   22.7781    8.0511  -13.4809 C   0  0  0  0  0  0  0  0  0  0  0  0
   22.2013    9.6150  -10.0988 C   0  0  0  0  0  0  0  0  0  0  0  0
   20.7645   10.7043  -11.6444 C   0  0  0  0  0  0  0  0  0  0  0  0
   23.0377    8.7508  -14.7917 C   0  0  0  0  0  0  0  0  0  0  0  0
   21.4701   13.9600  -10.3161 C   0  0  0  0  0  0  0  0  0  0  0  0
   20.7175   15.1126  -10.8200 C   0  0  0  0  0  0  0  0  0  0  0  0
   22.1419    8.8555  -12.4183 C   0  0  0  0  0  0  0  0  0  0  0  0
   23.6769    7.8276  -15.8041 C   0  0  0  0  0  0  0  0  0  0  0  0
   21.3761   10.6751  -10.4140 C   0  0  0  0  0  0  0  0  0  0  0  0
   20.9903   12.2528   -7.3215 C   0  0  0  0  0  0  0  0  0  0  0  0
   25.2558    9.9118  -15.3649 C   0  0  0  0  0  0  0  0  0  0  0  0
   26.1284    8.7164  -14.9226 C   0  0  0  0  0  0  0  0  0  0  0  0
   23.9541   10.0176  -14.5153 C   0  0  0  0  0  0  0  0  0  0  0  0
   21.1354    9.7959  -12.6245 C   0  0  0  0  0  0  0  0  0  0  0  0
   22.6754   13.9105  -10.3567 O   0  0  0  0  0  0  0  0  0  0  0  0
   21.5006   11.4837   -8.2566 N   0  0  0  0  0  0  0  0  0  0  0  0
   20.7165   12.8764   -9.7927 N   0  0  0  0  0  0  0  0  0  0  0  0
   22.5944    8.6671  -11.0899 C   0  0  0  0  0  0  0  0  0  0  0  0
  1  7  1  0
  2 12  1  0
  2 19  1  0
  2 20  2  3
  3 13  1  0
  4  7  1  0
  4 10  1  0
  5 12  2  0
  5 21  1  0
  6 12  1  0
  6 17  2  0
  7 11  1  0
  7 16  1  0
  8  9  1  0
  8 18  2  0
  8 20  1  0
 10 17  1  0
 10 21  2  0
 13 19  2  3
 14 15  1  0
 14 16  1  0
M  END
>  <ID>  (1) 
conformer_0

$$$$
