
     RDKit          3D

 27 29  0  0  0  0  0  0  0  0999 V2000
   20.9499   10.8752   -6.3240 N   0  0  0  0  0  0  0  0  0  0  0  0
   20.7466   10.9675  -14.8043 C   0  0  0  0  0  0  0  0  0  0  0  0
   21.3136   11.6900   -9.8406 C   0  0  0  0  0  0  0  0  0  0  0  0
   23.9752    7.5967  -13.8748 C   0  0  0  0  0  0  0  0  0  0  0  0
   23.3964    9.9160  -11.3432 C   0  0  0  0  0  0  0  0  0  0  0  0
   20.7774   11.8802  -16.9980 C   0  0  0  0  0  0  0  0  0  0  0  0
   21.4447   12.6482  -12.0077 N   0  0  0  0  0  0  0  0  0  0  0  0
   22.8329    7.8762  -14.5856 C   0  0  0  0  0  0  0  0  0  0  0  0
   20.0699   10.7745  -11.6929 O   0  0  0  0  0  0  0  0  0  0  0  0
   20.2594   11.8696  -15.6670 C   0  0  0  0  0  0  0  0  0  0  0  0
   21.6443   13.6986  -10.9755 C   0  0  0  0  0  0  0  0  0  0  0  0
   21.2301   11.2910  -11.2927 C   0  0  0  0  0  0  0  0  0  0  0  0
   22.2624   10.4174  -11.6497 N   0  0  0  0  0  0  0  0  0  0  0  0
   24.4968    8.2127  -12.8017 C   0  0  0  0  0  0  0  0  0  0  0  0
   21.0533   10.9682   -8.7133 C   0  0  0  0  0  0  0  0  0  0  0  0
   22.4951   10.4080  -16.3339 C   0  0  0  0  0  0  0  0  0  0  0  0
   22.6097   12.9028  -13.0303 C   0  0  0  0  0  0  0  0  0  0  0  0
   21.7738   10.1049  -15.1675 C   0  0  0  0  0  0  0  0  0  0  0  0
   20.0569   12.2907  -18.0584 O   0  0  0  0  0  0  0  0  0  0  0  0
   21.4292   14.9746  -11.2889 N   0  0  0  0  0  0  0  0  0  0  0  0
   21.8234   12.7802   -7.3868 N   0  0  0  0  0  0  0  0  0  0  0  0
   22.0532   13.5093   -8.5413 C   0  0  0  0  0  0  0  0  0  0  0  0
   21.2649   11.5370   -7.4748 C   0  0  0  0  0  0  0  0  0  0  0  0
   24.2454    9.0533  -11.9187 C   0  0  0  0  0  0  0  0  0  0  0  0
   22.0088    8.8934  -14.5466 C   0  0  0  0  0  0  0  0  0  0  0  0
   21.7060   13.0285   -9.7492 C   0  0  0  0  0  0  0  0  0  0  0  0
   22.0190   11.2891  -17.2172 C   0  0  0  0  0  0  0  0  0  0  0  0
  1 23  2  0
  2 10  2  0
  2 18  1  0
  3 12  1  0
  3 15  2  0
  3 26  1  0
  4  8  2  3
  4 14  1  0
  5 13  2  3
  5 24  1  0
  6 10  1  0
  6 19  1  0
  6 27  1  0
  7 11  1  0
  7 12  1  0
  7 17  1  0
  8 25  1  0
  9 12  1  0
 11 20  2  0
 11 26  1  0
 12 13  1  0
 14 24  2  3
 15 23  1  0
 16 18  1  0
 16 27  2  0
 18 25  2  3
 21 22  1  0
 21 23  1  0
 22 26  2  0
M  END
>  <ID>  (1) 
conformer_0

$$$$
