
     RDKit          3D

 25 26  0  0  0  0  0  0  0  0999 V2000
   24.2841    7.5775  -15.9810 C   0  0  0  0  0  0  0  0  0  0  0  0
   21.1208   10.8128  -11.5706 C   0  0  0  0  0  0  0  0  0  0  0  0
   20.0551   11.0148   -9.2742 C   0  0  0  0  0  0  0  0  0  0  0  0
   21.8564   13.1416   -9.3108 C   0  0  0  0  0  0  0  0  0  0  0  0
   21.9965   12.0877   -8.2475 C   0  0  0  0  0  0  0  0  0  0  0  0
   24.7218    6.8170  -14.7049 C   0  0  0  0  0  0  0  0  0  0  0  0
   21.8522   14.7439  -12.1393 O   0  0  0  0  0  0  0  0  0  0  0  0
   18.8280   11.6842  -11.2598 C   0  0  0  0  0  0  0  0  0  0  0  0
   21.8902   14.3368   -9.1194 O   0  0  0  0  0  0  0  0  0  0  0  0
   22.7240    8.9015  -12.0677 C   0  0  0  0  0  0  0  0  0  0  0  0
   21.4493   12.6984  -10.6320 N   0  0  0  0  0  0  0  0  0  0  0  0
   23.1523    8.6255  -13.5163 C   0  0  0  0  0  0  0  0  0  0  0  0
   22.1332    9.1662  -14.4968 C   0  0  0  0  0  0  0  0  0  0  0  0
   20.3096   11.6957  -10.6559 C   0  0  0  0  0  0  0  0  0  0  0  0
   21.8558   12.1586   -6.7479 C   0  0  0  0  0  0  0  0  0  0  0  0
   21.4342   13.5465  -11.8005 C   0  0  0  0  0  0  0  0  0  0  0  0
   21.4770   10.7247   -8.7067 C   0  0  0  0  0  0  0  0  0  0  0  0
   22.6105   12.9729   -6.2068 O   0  0  0  0  0  0  0  0  0  0  0  0
   22.3230   10.0571  -11.2230 C   0  0  0  0  0  0  0  0  0  0  0  0
   20.6312   12.8862  -12.9086 C   0  0  0  0  0  0  0  0  0  0  0  0
   21.1564   11.2561   -6.1769 O   0  0  0  0  0  0  0  0  0  0  0  0
   24.6463    9.0850  -15.8183 C   0  0  0  0  0  0  0  0  0  0  0  0
   25.6488    9.3358  -14.6720 C   0  0  0  0  0  0  0  0  0  0  0  0
   23.8127    7.2648  -13.5996 C   0  0  0  0  0  0  0  0  0  0  0  0
   20.9467   11.3993  -12.9492 C   0  0  0  0  0  0  0  0  0  0  0  0
  1  6  1  0
  1 22  1  0
  2 14  1  0
  2 19  1  0
  2 25  1  0
  3 14  1  0
  3 17  1  0
  4  5  1  0
  4  9  2  0
  4 11  1  0
  5 15  1  0
  5 17  1  0
  6 24  1  0
  7 16  2  0
  8 14  1  0
 10 12  1  0
 10 19  1  0
 11 14  1  0
 11 16  1  0
 12 13  1  0
 12 24  1  0
 15 18  2  0
 15 21  1  0
 16 20  1  0
 20 25  1  0
 22 23  1  0
M  END
>  <ID>  (1) 
conformer_0

$$$$
