
     RDKit          3D

 23 25  0  0  0  0  0  0  0  0999 V2000
   21.1471   11.7251   -9.1680 C   0  0  0  0  0  0  0  0  0  0  0  0
   21.5530   12.7764   -7.3744 N   0  0  0  0  0  0  0  0  0  0  0  0
   22.9283   13.0703  -13.7292 O   0  0  0  0  0  0  0  0  0  0  0  0
   20.1303   12.2544  -10.1985 C   0  0  0  0  0  0  0  0  0  0  0  0
   22.2490    9.8147  -12.6015 C   0  0  0  0  0  0  0  0  0  0  0  0
   23.5483    9.4175  -12.9985 C   0  0  0  0  0  0  0  0  0  0  0  0
   23.1661   12.6426  -12.3277 O   0  0  0  0  0  0  0  0  0  0  0  0
   22.0431   10.6639  -11.4721 C   0  0  0  0  0  0  0  0  0  0  0  0
   21.1741    9.4279  -13.4120 C   0  0  0  0  0  0  0  0  0  0  0  0
   26.1884    8.8397  -14.2797 O   0  0  0  0  0  1  0  0  0  0  0  0
   22.3118   13.9723   -9.1529 O   0  0  0  0  0  0  0  0  0  0  0  0
   25.0806    8.1941  -14.5106 N   0  0  0  0  0  0  0  0  0  0  0  0
   20.9510   12.9144  -11.2783 C   0  0  0  0  0  0  0  0  0  0  0  0
   21.3964    8.7259  -14.5709 C   0  0  0  0  0  0  0  0  0  0  0  0
   19.0931   11.2582  -10.7922 C   0  0  0  0  0  0  0  0  0  0  0  0
   23.7675    8.6713  -14.1483 C   0  0  0  0  0  0  0  0  0  0  0  0
   20.8713   14.1981  -11.9300 C   0  0  0  0  0  0  0  0  0  0  0  0
   22.6933    8.3350  -14.9324 C   0  0  0  0  0  0  0  0  0  0  0  0
   22.1001   12.1065  -11.6136 C   0  0  0  0  0  0  0  0  0  0  0  0
   21.8744   10.2406   -9.8493 S   0  0  0  0  0  0  0  0  0  0  0  0
   25.1956    7.0301  -15.1082 O   0  0  0  0  0  1  0  0  0  0  0  0
   21.8294   13.0362   -8.6417 C   0  0  0  0  0  0  0  0  0  0  0  0
   20.8512   11.2885   -7.7486 C   0  0  0  0  0  0  0  0  0  0  0  0
  1  4  1  0
  1 20  1  0
  1 22  1  0
  1 23  1  0
  2 22  1  0
  2 23  1  0
  3  7  1  0
  4 13  1  0
  4 15  1  0
  5  6  2  0
  5  8  1  0
  5  9  1  0
  6 16  1  0
  7 19  1  0
  8 19  1  0
  8 20  1  0
  9 14  2  0
 10 12  1  0
 11 22  2  0
 12 16  1  0
 12 21  1  0
 13 17  1  0
 13 19  1  0
 14 18  1  0
 16 18  2  0
M  END
>  <ID>  (1) 
conformer_0

$$$$
