
     RDKit          3D

 35 38  0  0  0  0  0  0  0  0999 V2000
   19.0762   11.7390  -11.3292 C   0  0  0  0  0  0  0  0  0  0  0  0
   23.3420   14.1898  -14.3529 O   0  0  0  0  0  0  0  0  0  0  0  0
   24.1146    8.0901  -11.3599 C   0  0  0  0  0  0  0  0  0  0  0  0
   21.4507   12.5630  -11.6604 N   0  0  0  0  0  0  0  0  0  0  0  0
   22.0738    9.0921  -10.7135 C   0  0  0  0  0  0  0  0  0  0  0  0
   22.1212    9.6827  -15.2287 C   0  0  0  0  0  0  0  0  0  0  0  0
   21.1672   11.9004  -15.2443 C   0  0  0  0  0  0  0  0  0  0  0  0
   21.8452   13.9294  -11.6586 C   0  0  0  0  0  0  0  0  0  0  0  0
   21.6217   12.5006  -14.0900 C   0  0  0  0  0  0  0  0  0  0  0  0
   22.0161   13.8971  -14.0232 C   0  0  0  0  0  0  0  0  0  0  0  0
   26.0604    9.2265  -14.7346 O   0  0  0  0  0  0  0  0  0  0  0  0
   20.3174   12.4273  -10.6636 C   0  0  0  0  0  0  0  0  0  0  0  0
   24.9418    8.5771  -14.7556 C   0  0  0  0  0  0  0  0  0  0  0  0
   22.1748   10.4413  -12.9041 C   0  0  0  0  0  0  0  0  0  0  0  0
   26.9172    6.8486  -16.3593 O   0  0  0  0  0  0  0  0  0  0  0  0
   25.8770    5.0403  -15.2503 C   0  0  0  0  0  0  0  0  0  0  0  0
   23.9205    8.9969  -13.7746 C   0  0  0  0  0  0  0  0  0  0  0  0
   20.7596   10.2403   -5.5306 O   0  0  0  0  0  0  0  0  0  0  0  0
   24.2235    8.5389  -12.5302 C   0  0  0  0  0  0  0  0  0  0  0  0
   25.8964    6.4710  -15.6974 C   0  0  0  0  0  0  0  0  0  0  0  0
   21.7345   11.8098  -12.8920 C   0  0  0  0  0  0  0  0  0  0  0  0
   22.2037   14.5659  -10.6659 O   0  0  0  0  0  0  0  0  0  0  0  0
   20.6848   11.8809   -9.3388 C   0  0  0  0  0  0  0  0  0  0  0  0
   20.6736    9.9077   -7.9092 C   0  0  0  0  0  0  0  0  0  0  0  0
   21.5519   12.7809   -5.9372 O   0  0  0  0  0  0  0  0  0  0  0  0
   20.8687   10.7021   -6.7881 C   0  0  0  0  0  0  0  0  0  0  0  0
   21.3161   10.6498  -15.7678 C   0  0  0  0  0  0  0  0  0  0  0  0
   21.6226   14.5726  -12.8477 N   0  0  0  0  0  0  0  0  0  0  0  0
   21.1555   12.0660   -6.9654 C   0  0  0  0  0  0  0  0  0  0  0  0
   23.1108    8.2709  -10.3571 C   0  0  0  0  0  0  0  0  0  0  0  0
   24.8729    7.2658  -15.1419 N   0  0  0  0  0  0  0  0  0  0  0  0
   21.0819   12.6476   -8.2319 C   0  0  0  0  0  0  0  0  0  0  0  0
   22.0151    9.8408  -11.7264 C   0  0  0  0  0  0  0  0  0  0  0  0
   22.7421    9.7552  -14.0237 C   0  0  0  0  0  0  0  0  0  0  0  0
   20.5611   10.5235   -9.0888 C   0  0  0  0  0  0  0  0  0  0  0  0
  1 12  1  0
  2 10  1  0
  3 19  2  0
  3 30  1  0
  4  8  1  0
  4 12  1  0
  4 21  1  0
  5 30  1  0
  5 33  2  0
  6 27  2  0
  6 34  1  0
  7  9  1  0
  7 27  1  0
  8 22  2  0
  8 28  1  0
  9 10  1  0
  9 21  1  0
 10 28  1  0
 11 13  2  0
 12 23  1  0
 13 17  1  0
 13 31  1  0
 14 21  1  0
 14 33  2  0
 14 34  1  0
 15 20  2  0
 16 20  1  0
 17 19  2  0
 17 34  1  0
 18 26  1  0
 20 31  1  0
 23 32  1  0
 23 35  1  0
 24 26  1  0
 24 35  2  0
 25 29  1  0
 26 29  1  0
 29 32  2  0
M  END
>  <ID>  (1) 
conformer_0

$$$$
