
     RDKit          3D

 19 19  0  0  0  0  0  0  0  0999 V2000
   21.7675    9.8013  -10.1278 C   0  0  0  0  0  0  0  0  0  0  0  0
   21.6656   11.6055  -11.7372 C   0  0  0  0  0  0  0  0  0  0  0  0
   22.4973    9.6757  -13.9957 C   0  0  0  0  0  0  0  0  0  0  0  0
   23.3001    8.5875  -14.6860 C   0  0  0  0  0  0  0  0  0  0  0  0
   21.5175   11.0914   -9.4205 C   0  0  0  0  0  0  0  0  0  0  0  0
   25.5729    9.1471  -14.6580 C   0  0  0  0  0  0  0  0  0  0  0  0
   21.4564   10.0881  -11.6251 C   0  0  0  0  0  0  0  0  0  0  0  0
   21.3559   11.7822   -7.0431 C   0  0  0  0  0  0  0  0  0  0  0  0
   22.3151    7.7434  -12.3596 C   0  0  0  0  0  0  0  0  0  0  0  0
   22.1518   14.1391   -9.2800 O   0  0  0  0  0  0  0  0  0  0  0  0
   20.6237   14.4606  -11.0152 C   0  0  0  0  0  0  0  0  0  0  0  0
   22.2084    9.2013  -12.6044 C   0  0  0  0  0  0  0  0  0  0  0  0
   21.4481   12.1792  -10.3899 C   0  0  0  0  0  0  0  0  0  0  0  0
   19.8705    9.8599  -11.8154 C   0  0  0  0  0  0  0  0  0  0  0  0
   21.4388   13.6027  -10.1509 C   0  0  0  0  0  0  0  0  0  0  0  0
   24.5312    8.4408  -13.9302 O   0  0  0  0  0  0  0  0  0  0  0  0
   22.5882   12.1505  -12.7533 C   0  0  0  0  0  0  0  0  0  0  0  0
   23.2981   13.2750  -12.7678 O   0  0  0  0  0  0  0  0  0  0  0  0
   20.6341   11.0645   -8.2211 C   0  0  0  0  0  0  0  0  0  0  0  0
  1  5  1  0
  1  7  1  0
  2  7  1  0
  2 13  1  0
  2 17  1  0
  3  4  1  0
  3 12  1  0
  4 16  1  0
  5 13  1  0
  5 19  1  0
  6 16  1  0
  7 12  1  0
  7 14  1  0
  8 19  1  0
  9 12  1  0
 10 15  2  0
 11 15  1  0
 13 15  1  0
 17 18  1  0
M  END
>  <ID>  (1) 
conformer_0

$$$$
