
     RDKit          3D

 23 24  0  0  0  0  0  0  0  0999 V2000
   26.4217    7.6571  -15.2003 N   0  0  0  0  0  0  0  0  0  0  0  0
   20.7045   11.8522  -10.7658 C   0  0  0  0  0  0  0  0  0  0  0  0
   19.0563   11.8873  -11.3790 Cl  0  0  0  0  0  0  0  0  0  0  0  0
   21.6323    8.9014  -14.7680 C   0  0  0  0  0  0  0  0  0  0  0  0
   24.9339    9.4650  -13.9951 O   0  0  0  0  0  0  0  0  0  0  0  0
   24.0478    8.3013  -14.3216 C   0  0  0  0  0  0  0  0  0  0  0  0
   22.1032   15.4170  -10.9680 O   0  0  0  0  0  0  0  0  0  0  0  0
   23.1177    8.6189  -12.8868 C   0  0  0  0  0  0  0  0  0  0  0  0
   21.4728   11.6716   -6.0431 N   0  0  0  0  0  0  0  0  0  0  0  0
   21.8853    9.3560  -13.3670 C   0  0  0  0  0  0  0  0  0  0  0  0
   21.2894   11.9748   -7.2631 C   0  0  0  0  0  0  0  0  0  0  0  0
   21.2745   13.6262   -9.0725 C   0  0  0  0  0  0  0  0  0  0  0  0
   20.7702   10.9083   -8.1040 C   0  0  0  0  0  0  0  0  0  0  0  0
   20.6505   10.9827   -9.5288 C   0  0  0  0  0  0  0  0  0  0  0  0
   22.0024   14.2046  -11.3492 C   0  0  0  0  0  0  0  0  0  0  0  0
   25.1692    7.4820  -15.2084 C   0  0  0  0  0  0  0  0  0  0  0  0
   21.2239   13.2589  -10.4799 C   0  0  0  0  0  0  0  0  0  0  0  0
   22.7864    8.1522  -15.2558 C   0  0  0  0  0  0  0  0  0  0  0  0
   22.7132   13.8146  -12.3926 N   0  0  0  0  0  0  0  0  0  0  0  0
   21.5233   13.1501   -7.8530 N   0  0  0  0  0  0  0  0  0  0  0  0
   21.6854   11.1892  -11.6978 C   0  0  0  0  0  0  0  0  0  0  0  0
   21.2448   10.6025  -12.9856 C   0  0  0  0  0  0  0  0  0  0  0  0
   24.6116    6.6396  -16.2420 C   0  0  0  0  0  0  0  0  0  0  0  0
  1 16  2  0
  2  3  1  0
  2 14  1  0
  2 17  1  0
  2 21  1  0
  4 10  1  0
  4 18  1  0
  5  6  1  0
  6  8  1  0
  6 16  1  0
  6 18  1  0
  7 15  2  0
  8 10  1  0
  9 11  2  0
 10 22  2  3
 11 13  1  0
 11 20  1  0
 12 17  1  0
 12 20  1  0
 13 14  2  0
 15 17  1  0
 15 19  1  0
 16 23  1  0
 21 22  1  0
M  END
>  <ID>  (1) 
conformer_0

$$$$
