
     RDKit          3D

 25 27  0  0  0  0  0  0  0  0999 V2000
   19.5745   12.9813  -11.0969 C   0  0  0  0  0  0  0  0  0  0  0  0
   23.4500    9.5841  -13.3648 C   0  0  0  0  0  0  0  0  0  0  0  0
   21.7676   13.6734   -8.2376 O   0  0  0  0  0  0  0  0  0  0  0  0
   22.1304   15.2898  -11.2533 O   0  0  0  0  0  0  0  0  0  0  0  0
   22.9175    7.1626  -12.8184 C   0  0  0  0  0  0  0  0  0  0  0  0
   20.9127   11.4957   -8.9766 C   0  0  0  0  0  0  0  0  0  0  0  0
   20.9057   13.0403   -9.0032 C   0  0  0  0  0  0  0  0  0  0  0  0
   20.3535   12.4515  -12.1905 C   0  0  0  0  0  0  0  0  0  0  0  0
   21.1173   11.3660   -7.4299 C   0  0  0  0  0  0  0  0  0  0  0  0
   23.6222    8.6611  -11.0014 C   0  0  0  0  0  0  0  0  0  0  0  0
   22.5264    9.6534  -10.4697 C   0  0  0  0  0  0  0  0  0  0  0  0
   20.5818   10.1731   -6.9890 O   0  0  0  0  0  0  0  0  0  0  0  0
   21.8979   13.9181  -11.0827 C   0  0  0  0  0  0  0  0  0  0  0  0
   20.1030   11.3214  -13.0772 C   0  0  0  0  0  0  0  0  0  0  0  0
   21.4178   10.0221   -9.4005 C   0  0  0  0  0  0  0  0  0  0  0  0
   20.5805   13.7876  -10.2463 C   0  0  0  0  0  0  0  0  0  0  0  0
   25.6168    9.1063  -14.0597 O   0  0  0  0  0  0  0  0  0  0  0  0
   21.0461   10.1825  -12.7622 C   0  0  0  0  0  0  0  0  0  0  0  0
   24.4486    9.8943  -14.4494 C   0  0  0  0  0  0  0  0  0  0  0  0
   23.7366    8.4141  -12.4977 C   0  0  0  0  0  0  0  0  0  0  0  0
   22.6247   12.1997  -13.0764 C   0  0  0  0  0  0  0  0  0  0  0  0
   21.6303   13.2019  -12.4294 C   0  0  0  0  0  0  0  0  0  0  0  0
   20.0111   11.7714  -14.3526 O   0  0  0  0  0  0  0  0  0  0  0  0
   22.4916   10.6965  -12.9850 C   0  0  0  0  0  0  0  0  0  0  0  0
   23.1524   12.6964  -14.2733 O   0  0  0  0  0  0  0  0  0  0  0  0
  1  8  1  0
  1 16  1  0
  2 19  1  0
  2 20  1  0
  2 24  1  0
  3  7  1  0
  4 13  1  0
  5 20  1  0
  6  7  1  0
  6  9  1  0
  6 15  1  0
  7 16  1  0
  8 14  1  0
  8 22  1  0
  9 12  1  0
 10 11  1  0
 10 20  1  0
 11 15  1  0
 13 16  1  0
 13 22  1  0
 14 18  1  0
 14 23  1  0
 17 19  1  0
 18 24  1  0
 21 22  1  0
 21 24  1  0
 21 25  1  0
M  END
>  <ID>  (1) 
conformer_0

$$$$
