
     RDKit          3D

 24 24  0  0  0  0  0  0  0  0999 V2000
   22.3297   14.9443  -10.4212 O   0  0  0  0  0  0  0  0  0  0  0  0
   21.8704   12.5792  -12.8337 C   0  0  0  0  0  0  0  0  0  0  0  0
   21.1178   12.8653   -9.9710 C   0  0  0  0  0  0  0  0  0  0  0  0
   21.0380   11.2845   -7.0793 C   0  0  0  0  0  0  0  0  0  0  0  0
   21.3770    9.7761  -13.5641 C   0  0  0  0  0  0  0  0  0  0  0  0
   21.5053   13.9922  -10.8561 C   0  0  0  0  0  0  0  0  0  0  0  0
   25.4165    6.2992  -14.9583 O   0  0  0  0  0  0  0  0  0  0  0  0
   25.2529    7.5424  -15.1039 C   0  0  0  0  0  0  0  0  0  0  0  0
   20.6189   10.2656  -10.9342 C   0  0  0  0  0  0  0  0  0  0  0  0
   26.1306    8.4516  -14.9067 O   0  0  0  0  0  0  0  0  0  0  0  0
   21.6427   12.4707   -7.2734 O   0  0  0  0  0  0  0  0  0  0  0  0
   21.3134   10.4789   -5.9324 C   0  0  0  0  0  0  0  0  0  0  0  0
   20.8565   10.8891  -14.5770 C   0  0  0  0  0  0  0  0  0  0  0  0
   21.2858    9.3741  -12.0462 C   0  0  0  0  0  0  0  0  0  0  0  0
   21.6456    8.5715  -14.4892 C   0  0  0  0  0  0  0  0  0  0  0  0
   21.3330   13.7971  -12.2828 C   0  0  0  0  0  0  0  0  0  0  0  0
   21.4155   11.5146  -10.6298 C   0  0  0  0  0  0  0  0  0  0  0  0
   20.1520   10.7835   -8.0616 C   0  0  0  0  0  0  0  0  0  0  0  0
   22.9589    7.8900  -14.1935 C   0  0  0  0  0  0  0  0  0  0  0  0
   19.1087   10.5302  -11.2787 C   0  0  0  0  0  0  0  0  0  0  0  0
   21.7831   13.0121   -8.5977 C   0  0  0  0  0  0  0  0  0  0  0  0
   23.8287    7.9159  -15.4587 C   0  0  0  0  0  0  0  0  0  0  0  0
   22.4869   11.7229  -11.6964 C   0  0  0  0  0  0  0  0  0  0  0  0
   22.6789   13.7195  -13.0979 C   0  0  0  0  0  0  0  0  0  0  0  0
  1  6  1  0
  2 16  1  0
  2 23  1  0
  2 24  1  0
  3  6  1  0
  3 17  1  0
  3 21  1  0
  4 11  1  0
  4 12  1  0
  4 18  1  0
  5 13  1  0
  5 14  2  3
  5 15  1  0
  6 16  1  0
  7  8  2  0
  8 10  1  0
  8 22  1  0
  9 14  1  0
  9 17  1  0
  9 20  1  0
 11 21  1  0
 15 19  1  0
 17 23  1  0
 19 22  1  0
M  END
>  <ID>  (1) 
conformer_0

$$$$
