
     RDKit          3D

 24 26  0  0  0  0  0  0  0  0999 V2000
   23.3060   13.7547  -13.5467 O   0  0  0  0  0  0  0  0  0  0  0  0
   21.6623   12.5179   -6.5434 C   0  0  0  0  0  0  0  0  0  0  0  0
   26.1310    9.8168  -16.6620 O   0  0  0  0  0  0  0  0  0  0  0  0
   23.0552   11.4608  -14.2201 C   0  0  0  0  0  0  0  0  0  0  0  0
   21.2524   14.7005  -11.7374 C   0  0  0  0  0  0  0  0  0  0  0  0
   21.4428   12.0401   -7.8965 C   0  0  0  0  0  0  0  0  0  0  0  0
   21.6776   13.2557  -11.4898 C   0  0  0  0  0  0  0  0  0  0  0  0
   22.5592   12.6756  -13.6656 C   0  0  0  0  0  0  0  0  0  0  0  0
   20.2289   11.6601  -12.7334 C   0  0  0  0  0  0  0  0  0  0  0  0
   22.0219   14.1513   -8.8596 O   0  0  0  0  0  0  0  0  0  0  0  0
   21.4979   12.5013  -12.6890 N   0  0  0  0  0  0  0  0  0  0  0  0
   24.5636    9.9737  -14.9454 C   0  0  0  0  0  0  0  0  0  0  0  0
   20.8347   11.1675  -10.4723 C   0  0  0  0  0  0  0  0  0  0  0  0
   24.1270   11.2659  -15.0811 C   0  0  0  0  0  0  0  0  0  0  0  0
   21.0990   10.7389   -8.1442 C   0  0  0  0  0  0  0  0  0  0  0  0
   20.2040   10.7041  -11.7249 O   0  0  0  0  0  0  0  0  0  0  0  0
   25.8056    9.4312  -15.5101 C   0  0  0  0  0  0  0  0  0  0  0  0
   26.4300    8.5235  -14.8807 O   0  0  0  0  0  0  0  0  0  0  0  0
   21.3395   12.4736  -10.3289 C   0  0  0  0  0  0  0  0  0  0  0  0
   22.7362   10.2095  -13.7398 C   0  0  0  0  0  0  0  0  0  0  0  0
   21.5989   12.9169   -9.0056 C   0  0  0  0  0  0  0  0  0  0  0  0
   20.8316   10.2532   -9.4420 C   0  0  0  0  0  0  0  0  0  0  0  0
   23.6803    9.3204  -14.1273 N   0  0  0  0  0  0  0  0  0  0  0  0
   21.5665   11.5422   -5.5315 O   0  0  0  0  0  0  0  0  0  0  0  0
  1  8  2  0
  2  6  1  0
  2 24  1  0
  3 17  2  0
  4  8  1  0
  4 14  1  0
  4 20  1  0
  5  7  1  0
  6 15  2  0
  6 21  1  0
  7 11  1  0
  7 19  1  0
  8 11  1  0
  9 11  1  0
  9 16  1  0
 10 21  1  0
 12 14  1  0
 12 17  1  0
 12 23  1  0
 13 16  1  0
 13 19  1  0
 13 22  2  0
 15 22  1  0
 17 18  1  0
 19 21  2  0
 20 23  1  0
M  END
>  <ID>  (1) 
conformer_0

$$$$
