
     RDKit          3D

 17 17  0  0  0  0  0  0  0  0999 V2000
   24.4297    7.7147  -14.2350 C   0  0  0  0  0  0  0  0  0  0  0  0
   21.6007    9.4730  -12.2893 C   0  0  0  0  0  0  0  0  0  0  0  0
   20.2109   11.7660  -10.7152 C   0  0  0  0  0  0  0  0  0  0  0  0
   21.8442   12.8044   -8.9296 C   0  0  0  0  0  0  0  0  0  0  0  0
   21.1605   10.8812  -10.1520 C   0  0  0  0  0  0  0  0  0  0  0  0
   21.6499    9.6351  -10.8232 C   0  0  0  0  0  0  0  0  0  0  0  0
   21.6680   13.5773  -10.1168 C   0  0  0  0  0  0  0  0  0  0  0  0
   25.3144    8.6584  -14.1228 O   0  0  0  0  0  0  0  0  0  0  0  0
   20.5922   13.1252  -11.0125 C   0  0  0  0  0  0  0  0  0  0  0  0
   18.9540   11.3156  -10.8387 O   0  0  0  0  0  0  0  0  0  0  0  0
   22.1697   14.8052  -10.1880 O   0  0  0  0  0  0  0  0  0  0  0  0
   20.5332   10.0129  -12.9195 O   0  0  0  0  0  0  0  0  0  0  0  0
   23.0952    7.8916  -13.5145 C   0  0  0  0  0  0  0  0  0  0  0  0
   24.6855    6.5556  -14.6833 O   0  0  0  0  0  0  0  0  0  0  0  0
   21.9076   11.4086   -9.0846 O   0  0  0  0  0  0  0  0  0  0  0  0
   22.8558    9.3266  -13.0625 C   0  0  0  0  0  0  0  0  0  0  0  0
   21.7553   13.2521   -7.7523 O   0  0  0  0  0  0  0  0  0  0  0  0
  1  8  2  0
  1 13  1  0
  1 14  1  0
  2  6  1  0
  2 12  1  0
  2 16  1  0
  3  5  1  0
  3  9  1  0
  3 10  1  0
  4  7  1  0
  4 15  1  0
  4 17  2  0
  5  6  1  0
  5 15  1  0
  7  9  1  0
  7 11  1  0
 13 16  1  0
M  END
>  <ID>  (1) 
conformer_0

$$$$
