
     RDKit          3D

 32 38  0  0  0  0  0  0  0  0999 V2000
   25.1213   10.4837  -16.2861 C   0  0  0  0  0  0  0  0  0  0  0  0
   21.8486   11.0425  -13.0218 C   0  0  0  0  0  0  0  0  0  0  0  0
   23.3522    7.2955  -15.2743 C   0  0  0  0  0  0  0  0  0  0  0  0
   24.3146    5.4944  -14.1771 C   0  0  0  0  0  0  0  0  0  0  0  0
   21.2198   11.2347   -6.6564 C   0  0  0  0  0  0  0  0  0  0  0  0
   24.0382    6.0308  -15.5194 C   0  0  0  0  0  0  0  0  0  0  0  0
   20.4947   10.2904   -6.9714 O   0  0  0  0  0  0  0  0  0  0  0  0
   22.2903    8.3428  -11.7523 C   0  0  0  0  0  0  0  0  0  0  0  0
   21.7443   15.2032  -10.8962 O   0  0  0  0  0  0  0  0  0  0  0  0
   21.3804    9.3902  -11.1558 C   0  0  0  0  0  0  0  0  0  0  0  0
   22.5037    9.9155  -13.6373 C   0  0  0  0  0  0  0  0  0  0  0  0
   23.9304   12.5048  -15.6722 C   0  0  0  0  0  0  0  0  0  0  0  0
   22.4985    8.5367  -13.2279 C   0  0  0  0  0  0  0  0  0  0  0  0
   23.5410    7.6427  -13.8320 C   0  0  0  0  0  0  0  0  0  0  0  0
   21.5157   11.5977   -9.5055 C   0  0  0  0  0  0  0  0  0  0  0  0
   22.3002   12.3783  -13.6498 C   0  0  0  0  0  0  0  0  0  0  0  0
   21.8135   11.2358   -5.3251 C   0  0  0  0  0  0  0  0  0  0  0  0
   21.1753   10.7088  -11.7751 C   0  0  0  0  0  0  0  0  0  0  0  0
   21.0775   14.2071  -10.5499 C   0  0  0  0  0  0  0  0  0  0  0  0
   24.3808    9.8276  -15.3574 C   0  0  0  0  0  0  0  0  0  0  0  0
   19.8975   12.6728  -13.4727 C   0  0  0  0  0  0  0  0  0  0  0  0
   21.4013   11.8494  -10.8753 C   0  0  0  0  0  0  0  0  0  0  0  0
   23.4770    6.3245  -13.2334 O   0  0  0  0  0  0  0  0  0  0  0  0
   21.4202   12.3634   -7.3378 N   0  0  0  0  0  0  0  0  0  0  0  0
   20.9054   13.0681  -11.5248 C   0  0  0  0  0  0  0  0  0  0  0  0
   20.7930   13.8144   -9.2304 N   0  0  0  0  0  0  0  0  0  0  0  0
   23.2213   11.8284  -14.7172 C   0  0  0  0  0  0  0  0  0  0  0  0
   19.4517   12.6281  -12.0331 C   0  0  0  0  0  0  0  0  0  0  0  0
   23.4177   10.4646  -14.6097 C   0  0  0  0  0  0  0  0  0  0  0  0
   21.2966   12.6924   -8.6410 C   0  0  0  0  0  0  0  0  0  0  0  0
   24.8651   11.8269  -16.4483 C   0  0  0  0  0  0  0  0  0  0  0  0
   21.4120   13.3797  -12.9351 C   0  0  0  0  0  0  0  0  0  0  0  0
  1 20  2  0
  1 31  1  0
  2 11  1  0
  2 16  1  0
  2 18  1  0
  3  6  1  0
  3 14  1  0
  4  6  1  0
  4 23  1  0
  5  7  2  0
  5 17  1  0
  5 24  1  0
  8 10  1  0
  8 13  1  0
  9 19  2  0
 10 18  1  0
 11 13  1  0
 11 29  2  0
 12 27  2  0
 12 31  1  0
 13 14  1  0
 14 23  1  0
 15 22  1  0
 15 30  2  0
 16 27  1  0
 16 32  1  0
 18 22  1  0
 19 25  1  0
 19 26  1  0
 20 29  1  0
 21 28  1  0
 21 32  1  0
 22 25  1  0
 24 30  1  0
 25 28  1  0
 25 32  1  0
 26 30  1  0
 27 29  1  0
M  END
>  <ID>  (1) 
conformer_0

$$$$
