
     RDKit          3D

 28 32  0  0  0  0  0  0  0  0999 V2000
   22.9349    8.9091  -12.5522 C   0  0  0  0  0  0  0  0  0  0  0  0
   21.0093   11.7573   -9.2297 C   0  0  0  0  0  0  0  0  0  0  0  0
   21.7754   12.0861   -7.9910 C   0  0  0  0  0  0  0  0  0  0  0  0
   21.3891   10.3082  -11.1102 C   0  0  0  0  0  0  0  0  0  0  0  0
   21.6186    8.8775  -14.4476 C   0  0  0  0  0  0  0  0  0  0  0  0
   22.1933   12.1510  -14.2675 C   0  0  0  0  0  0  0  0  0  0  0  0
   23.3988   10.3457  -15.0933 C   0  0  0  0  0  0  0  0  0  0  0  0
   24.3844    9.7130  -15.7543 O   0  0  0  0  0  0  0  0  0  0  0  0
   22.9385   11.6637  -15.3938 C   0  0  0  0  0  0  0  0  0  0  0  0
   21.8472   14.7658   -8.9614 O   0  0  0  0  0  0  0  0  0  0  0  0
   19.2940   10.5319  -10.3094 O   0  0  0  0  0  0  0  0  0  0  0  0
   23.0245   12.3403  -16.5012 O   0  0  0  0  0  0  0  0  0  0  0  0
   21.4928   13.7214  -12.5338 C   0  0  0  0  0  0  0  0  0  0  0  0
   21.7329   14.9385  -12.0901 O   0  0  0  0  0  0  0  0  0  0  0  0
   21.0573   12.9042  -10.1874 C   0  0  0  0  0  0  0  0  0  0  0  0
   22.6247    9.8532  -13.7571 C   0  0  0  0  0  0  0  0  0  0  0  0
   23.2466    8.5676  -10.4462 C   0  0  0  0  0  0  0  0  0  0  0  0
   21.7013   13.4753  -13.9123 C   0  0  0  0  0  0  0  0  0  0  0  0
   20.5321   10.6107  -10.0632 C   0  0  0  0  0  0  0  0  0  0  0  0
   20.9865   12.7597   -7.0699 O   0  0  0  0  0  0  0  0  0  0  0  0
   21.5103   11.3297  -12.0794 C   0  0  0  0  0  0  0  0  0  0  0  0
   22.7246    7.3744  -12.7450 C   0  0  0  0  0  0  0  0  0  0  0  0
   22.0246   13.8934   -9.8169 C   0  0  0  0  0  0  0  0  0  0  0  0
   24.2591    8.8615  -11.8672 C   0  0  0  0  0  0  0  0  0  0  0  0
   21.0995   12.6414  -11.6323 C   0  0  0  0  0  0  0  0  0  0  0  0
   22.0664    9.0810  -11.2809 C   0  0  0  0  0  0  0  0  0  0  0  0
   22.0805   11.1153  -13.3435 C   0  0  0  0  0  0  0  0  0  0  0  0
   25.6759    9.5695  -15.1365 C   0  0  0  0  0  0  0  0  0  0  0  0
  1 16  1  0
  1 22  1  0
  1 24  1  0
  1 26  1  0
  2  3  1  0
  2 15  1  0
  2 19  1  0
  3 20  1  0
  4 19  1  0
  4 21  1  0
  4 26  1  0
  5 16  1  0
  6  9  1  0
  6 18  1  0
  6 27  2  0
  7  8  1  0
  7  9  1  0
  7 16  1  0
  8 28  1  0
  9 12  1  0
 10 23  2  0
 11 19  2  0
 13 14  1  0
 13 18  1  0
 13 25  1  0
 15 23  1  0
 15 25  1  0
 16 27  1  0
 17 24  1  0
 17 26  1  0
 21 25  1  0
 21 27  1  0
M  END
>  <ID>  (1) 
conformer_0

$$$$
