
     RDKit          3D

 25 27  0  0  0  0  0  0  0  0999 V2000
   21.2249   10.4141  -10.7609 C   0  0  0  0  0  0  0  0  0  0  0  0
   20.7055   10.5067   -8.3297 C   0  0  0  0  0  0  0  0  0  0  0  0
   25.9969    8.6924  -14.4372 O   0  0  0  0  0  0  0  0  0  0  0  0
   21.6918   14.1193  -10.9673 C   0  0  0  0  0  0  0  0  0  0  0  0
   21.5674   10.1959  -14.4135 C   0  0  0  0  0  0  0  0  0  0  0  0
   21.6945   14.1255  -12.4313 C   0  0  0  0  0  0  0  0  0  0  0  0
   22.1242   15.1331  -10.3211 O   0  0  0  0  0  0  0  0  0  0  0  0
   21.5905   11.6896  -11.1011 C   0  0  0  0  0  0  0  0  0  0  0  0
   21.3568    9.5181  -11.9972 C   0  0  0  0  0  0  0  0  0  0  0  0
   22.3771   12.4526   -6.1822 C   0  0  0  0  0  0  0  0  0  0  0  0
   20.7861    9.9837   -9.5787 C   0  0  0  0  0  0  0  0  0  0  0  0
   19.9378    9.1598  -12.4619 C   0  0  0  0  0  0  0  0  0  0  0  0
   21.5355   12.8407  -10.2822 C   0  0  0  0  0  0  0  0  0  0  0  0
   21.0647   11.8120   -7.9505 C   0  0  0  0  0  0  0  0  0  0  0  0
   22.1192   10.4148  -13.0055 C   0  0  0  0  0  0  0  0  0  0  0  0
   24.3672   10.5425  -15.3708 C   0  0  0  0  0  0  0  0  0  0  0  0
   21.3841   12.7583   -8.9180 C   0  0  0  0  0  0  0  0  0  0  0  0
   21.0675   12.1235   -6.6694 O   0  0  0  0  0  0  0  0  0  0  0  0
   22.1867    8.2775  -11.6435 C   0  0  0  0  0  0  0  0  0  0  0  0
   23.7901    9.3001  -14.7965 C   0  0  0  0  0  0  0  0  0  0  0  0
   24.6712    8.5568  -13.9163 C   0  0  0  0  0  0  0  0  0  0  0  0
   22.0886   11.7522  -12.4704 C   0  0  0  0  0  0  0  0  0  0  0  0
   22.5066   12.9706  -12.8979 O   0  0  0  0  0  0  0  0  0  0  0  0
   22.3548    9.0708  -15.0660 C   0  0  0  0  0  0  0  0  0  0  0  0
   23.4930   11.5245  -15.8866 O   0  0  0  0  0  0  0  0  0  0  0  0
  1  8  1  0
  1  9  1  0
  1 11  2  0
  2 11  1  0
  2 14  1  0
  3 21  1  0
  4  6  1  0
  4  7  2  0
  4 13  1  0
  5 15  1  0
  5 24  1  0
  6 23  1  0
  8 13  1  0
  8 22  2  0
  9 12  1  0
  9 15  1  0
  9 19  1  0
 10 18  1  0
 13 17  1  0
 14 17  2  0
 14 18  1  0
 15 22  1  0
 16 20  2  3
 16 25  1  0
 20 21  1  0
 20 24  1  0
 22 23  1  0
M  END
>  <ID>  (1) 
conformer_0

$$$$
