
     RDKit          3D

 24 25  0  0  0  0  0  0  0  0999 V2000
   21.4694   12.1725   -7.6216 C   0  0  0  0  0  0  0  0  0  0  0  0
   22.1353   10.4193  -10.0438 C   0  0  0  0  0  0  0  0  0  0  0  0
   20.8739   10.9437   -7.3749 N   0  0  0  0  0  0  0  0  0  0  0  0
   22.5528    9.9926  -11.4002 C   0  0  0  0  0  0  0  0  0  0  0  0
   22.0066   12.8317   -6.7512 O   0  0  0  0  0  0  0  0  0  0  0  0
   22.5561   13.2380  -15.0170 C   0  0  0  0  0  0  0  0  0  0  0  0
   21.0296   10.0691   -6.2152 C   0  0  0  0  0  0  0  0  0  0  0  0
   22.3119   13.3656  -13.1859 C   0  0  0  0  0  0  0  0  0  0  0  0
   22.3065   11.8371   -9.7846 C   0  0  0  0  0  0  0  0  0  0  0  0
   22.0098   13.3112  -11.6433 C   0  0  0  0  0  0  0  0  0  0  0  0
   22.8914   11.1359  -16.8351 O   0  0  0  0  0  0  0  0  0  0  0  0
   21.2414   14.3044  -11.1741 O   0  0  0  0  0  0  0  0  0  0  0  0
   22.7568   10.3368  -12.9059 C   0  0  0  0  0  0  0  0  0  0  0  0
   23.1337    9.2923  -13.7613 C   0  0  0  0  0  0  0  0  0  0  0  0
   23.0884    9.4865  -15.1200 C   0  0  0  0  0  0  0  0  0  0  0  0
   23.6770    8.0567  -13.1775 C   0  0  0  0  0  0  0  0  0  0  0  0
   24.9286    7.6607  -13.7547 C   0  0  0  0  0  0  0  0  0  0  0  0
   22.8878   10.7954  -15.6030 C   0  0  0  0  0  0  0  0  0  0  0  0
   22.9330   12.5353  -10.8596 C   0  0  0  0  0  0  0  0  0  0  0  0
   22.7600    7.1982  -12.4274 C   0  0  0  0  0  0  0  0  0  0  0  0
   22.0873   14.8283  -13.4173 O   0  0  0  0  0  0  0  0  0  0  0  0
   22.6802   11.8550  -14.7432 C   0  0  0  0  0  0  0  0  0  0  0  0
   21.5487   12.5572   -8.9419 N   0  0  0  0  0  0  0  0  0  0  0  0
   22.5706   11.6674  -13.4543 C   0  0  0  0  0  0  0  0  0  0  0  0
  1  3  1  0
  1  5  2  0
  1 23  1  0
  2  4  1  0
  2  9  1  0
  3  7  1  0
  4 13  2  0
  6 22  1  0
  8 10  1  0
  8 21  1  0
  8 24  1  0
  9 19  1  0
  9 23  1  0
 10 12  1  0
 10 19  1  0
 11 18  2  0
 13 14  1  0
 13 24  1  0
 14 15  2  0
 14 16  1  0
 15 18  1  0
 16 17  1  0
 16 20  1  0
 18 22  1  0
 22 24  2  0
M  END
>  <ID>  (1) 
conformer_0

$$$$
