
     RDKit          3D

 32 36  0  0  0  0  0  0  0  0999 V2000
   24.7172    7.2590  -15.0370 O   0  0  0  0  0  0  0  0  0  0  0  0
   21.2437   10.0936  -11.8373 N   0  0  0  0  0  0  0  0  0  0  0  0
   21.1799   11.0432   -6.2114 C   0  0  0  0  0  0  0  0  0  0  0  0
   21.3123   10.4332  -14.7355 O   0  0  0  0  0  0  0  0  0  0  0  0
   23.3364    7.4376  -13.1502 C   0  0  0  0  0  0  0  0  0  0  0  0
   21.3228   12.3822  -12.5846 N   0  0  0  0  0  0  0  0  0  0  0  0
   23.0036   13.4362  -14.3980 C   0  0  0  0  0  0  0  0  0  0  0  0
   21.1865   11.4072  -11.5454 C   0  0  0  0  0  0  0  0  0  0  0  0
   22.5472   12.5514  -13.3054 C   0  0  0  0  0  0  0  0  0  0  0  0
   23.8383    7.9860  -14.3275 C   0  0  0  0  0  0  0  0  0  0  0  0
   20.9739   12.0863  -10.3028 C   0  0  0  0  0  0  0  0  0  0  0  0
   23.9944   10.0628  -15.7146 O   0  0  0  0  0  0  0  0  0  0  0  0
   23.6754   12.7924  -15.4878 C   0  0  0  0  0  0  0  0  0  0  0  0
   21.0120   11.7279   -8.9301 C   0  0  0  0  0  0  0  0  0  0  0  0
   20.8738   10.0842   -7.1233 C   0  0  0  0  0  0  0  0  0  0  0  0
   24.2875   13.5302  -16.4066 N   0  0  0  0  0  0  0  0  0  0  0  0
   24.2617   14.8994  -16.3104 C   0  0  0  0  0  0  0  0  0  0  0  0
   20.7623   10.4395   -8.4836 C   0  0  0  0  0  0  0  0  0  0  0  0
   23.6163   15.5520  -15.2805 C   0  0  0  0  0  0  0  0  0  0  0  0
   23.0530   13.2403  -10.7571 O   0  0  0  0  0  0  0  0  0  0  0  0
   21.0019   13.7031  -11.9831 C   0  0  0  0  0  0  0  0  0  0  0  0
   21.5605   14.6364   -9.7356 O   0  0  0  0  0  0  0  0  0  0  0  0
   21.7103   13.5226  -10.5888 C   0  0  0  0  0  0  0  0  0  0  0  0
   21.3648   12.3242   -6.5999 N   0  0  0  0  0  0  0  0  0  0  0  0
   25.8912    7.7754  -15.5965 C   0  0  0  0  0  0  0  0  0  0  0  0
   22.9388   14.7787  -14.3607 C   0  0  0  0  0  0  0  0  0  0  0  0
   23.7664   11.3996  -15.6565 N   0  0  0  0  0  0  0  0  0  0  0  0
   21.2837   12.6368   -7.9371 C   0  0  0  0  0  0  0  0  0  0  0  0
   22.3910    8.0958  -12.3582 C   0  0  0  0  0  0  0  0  0  0  0  0
   22.2339    9.7211  -14.0713 C   0  0  0  0  0  0  0  0  0  0  0  0
   21.9395    9.3005  -12.7695 C   0  0  0  0  0  0  0  0  0  0  0  0
   23.3579    9.2286  -14.7220 C   0  0  0  0  0  0  0  0  0  0  0  0
  1 10  1  0
  1 25  1  0
  2  8  2  0
  2 31  1  0
  3 15  2  0
  3 24  1  0
  4 30  1  0
  5 10  2  0
  5 29  1  0
  6  8  1  0
  6  9  1  0
  6 21  1  0
  7  9  1  0
  7 13  2  0
  7 26  1  0
  8 11  1  0
 10 32  1  0
 11 14  1  0
 11 23  1  0
 12 27  1  0
 12 32  1  0
 13 16  1  0
 13 27  1  0
 14 18  2  0
 14 28  1  0
 15 18  1  0
 16 17  2  0
 17 19  1  0
 19 26  2  0
 20 23  1  0
 21 23  1  0
 22 23  1  0
 24 28  2  0
 29 31  2  0
 30 31  1  0
 30 32  1  0
M  END
>  <ID>  (1) 
conformer_0

$$$$
