
     RDKit          3D

 25 26  0  0  0  0  0  0  0  0999 V2000
   25.8022    8.3473  -14.5088 O   0  0  0  0  0  0  0  0  0  0  0  0
   21.4540   11.1221  -11.2923 C   0  0  0  0  0  0  0  0  0  0  0  0
   19.2816   10.2846  -10.7003 C   0  0  0  0  0  0  0  0  0  0  0  0
   22.4026    8.8564  -11.6494 C   0  0  0  0  0  0  0  0  0  0  0  0
   21.0952   13.2499  -10.2032 C   0  0  0  0  0  0  0  0  0  0  0  0
   21.0633   11.1300   -6.6452 N   0  0  0  0  0  0  0  0  0  0  0  0
   20.8548   14.7325  -10.4532 C   0  0  0  0  0  0  0  0  0  0  0  0
   23.5130    8.5783  -13.8581 C   0  0  0  0  0  0  0  0  0  0  0  0
   25.7688   11.5842  -16.8026 C   0  0  0  0  0  0  0  0  0  0  0  0
   21.5427   12.3737   -6.6627 C   0  0  0  0  0  0  0  0  0  0  0  0
   24.6954    8.9644  -14.5846 C   0  0  0  0  0  0  0  0  0  0  0  0
   23.6260    8.3097  -12.4197 C   0  0  0  0  0  0  0  0  0  0  0  0
   24.5826   12.1556  -16.1703 C   0  0  0  0  0  0  0  0  0  0  0  0
   21.2027   12.4678   -8.9931 C   0  0  0  0  0  0  0  0  0  0  0  0
   21.6331   13.0959   -7.8082 C   0  0  0  0  0  0  0  0  0  0  0  0
   20.7395   10.4758   -7.7842 C   0  0  0  0  0  0  0  0  0  0  0  0
   21.5556   13.1971  -12.7577 C   0  0  0  0  0  0  0  0  0  0  0  0
   21.1784   12.5098  -11.4445 C   0  0  0  0  0  0  0  0  0  0  0  0
   20.6587   10.4808  -10.2711 C   0  0  0  0  0  0  0  0  0  0  0  0
   20.8553   11.1280   -9.0049 C   0  0  0  0  0  0  0  0  0  0  0  0
   22.0734   10.2164  -12.2323 C   0  0  0  0  0  0  0  0  0  0  0  0
   24.6096    9.8483  -15.8070 C   0  0  0  0  0  0  0  0  0  0  0  0
   23.0187   13.3847  -12.7768 O   0  0  0  0  0  0  0  0  0  0  0  0
   25.4123   11.0748  -15.4804 O   0  0  0  0  0  0  0  0  0  0  0  0
   22.2154    8.5612  -14.6200 C   0  0  0  0  0  0  0  0  0  0  0  0
  1 11  2  0
  2 18  1  0
  2 19  1  0
  2 21  1  0
  3 19  1  0
  4 12  1  0
  4 21  1  0
  5  7  1  0
  5 14  1  0
  5 18  1  0
  6 10  1  0
  6 16  2  0
  8 11  1  0
  8 12  1  0
  8 25  1  0
  9 13  1  0
  9 24  1  0
 10 15  2  0
 11 22  1  0
 14 15  1  0
 14 20  2  0
 16 20  1  0
 17 18  1  0
 17 23  1  0
 19 20  1  0
 22 24  1  0
M  END
>  <ID>  (1) 
conformer_0

$$$$
