
     RDKit          3D

 32 36  0  0  0  0  0  0  0  0999 V2000
   23.0224    9.0591  -11.6766 C   0  0  0  0  0  0  0  0  0  0  0  0
   26.1540    8.8745  -17.1867 C   0  0  0  0  0  0  0  0  0  0  0  0
   23.9122    8.1239  -16.0166 C   0  0  0  0  0  0  0  0  0  0  0  0
   21.2803   14.1604  -10.1254 C   0  0  0  0  0  0  0  0  0  0  0  0
   26.1221    6.5159  -17.9262 O   0  0  0  0  0  0  0  0  0  0  0  0
   25.9681    7.2939  -16.8335 C   0  0  0  0  0  0  0  0  0  0  0  0
   20.7488   10.8197   -8.4399 C   0  0  0  0  0  0  0  0  0  0  0  0
   20.4185    9.7997   -6.3187 O   0  0  0  0  0  0  0  0  0  0  0  0
   21.5572   10.2131   -9.5190 C   0  0  0  0  0  0  0  0  0  0  0  0
   23.1747   14.1580  -13.5729 O   0  0  0  0  0  0  0  0  0  0  0  0
   23.0660    8.4676  -10.4196 C   0  0  0  0  0  0  0  0  0  0  0  0
   24.4809    7.0517  -16.3324 N   0  0  0  0  0  0  0  0  0  0  0  0
   25.5110    9.8700  -16.2946 C   0  0  0  0  0  0  0  0  0  0  0  0
   21.4601   11.8602   -6.2813 C   0  0  0  0  0  0  0  0  0  0  0  0
   21.2703   13.3091  -12.2889 C   0  0  0  0  0  0  0  0  0  0  0  0
   21.8816    9.1554  -14.8767 S   0  0  0  0  0  0  0  0  0  0  0  0
   21.3746   14.4967  -11.4630 N   0  0  0  0  0  0  0  0  0  0  0  0
   20.2351   12.0474   -8.9427 N   0  0  0  0  0  0  0  0  0  0  0  0
   23.5847   11.4140  -14.4579 C   0  0  0  0  0  0  0  0  0  0  0  0
   24.3014    9.4160  -15.7278 C   0  0  0  0  0  0  0  0  0  0  0  0
   26.8129    7.0169  -15.7561 O   0  0  0  0  0  0  0  0  0  0  0  0
   22.5144   11.9286  -13.6623 N   0  0  0  0  0  0  0  0  0  0  0  0
   22.0327   14.5523   -9.2660 O   0  0  0  0  0  0  0  0  0  0  0  0
   21.6094   10.7969  -10.8265 C   0  0  0  0  0  0  0  0  0  0  0  0
   22.2056   10.1723  -11.8797 C   0  0  0  0  0  0  0  0  0  0  0  0
   21.0978   12.1436  -11.3206 C   0  0  0  0  0  0  0  0  0  0  0  0
   20.7036   12.8264  -10.0523 C   0  0  0  0  0  0  0  0  0  0  0  0
   21.7373   10.9202  -13.0040 C   0  0  0  0  0  0  0  0  0  0  0  0
   22.3303   13.2657  -13.3188 C   0  0  0  0  0  0  0  0  0  0  0  0
   23.3660   10.0619  -14.9107 C   0  0  0  0  0  0  0  0  0  0  0  0
   22.3233    9.0069   -9.3747 C   0  0  0  0  0  0  0  0  0  0  0  0
   20.8536   10.7617   -6.9771 C   0  0  0  0  0  0  0  0  0  0  0  0
  1 11  2  0
  1 25  1  0
  2  6  1  0
  2 13  1  0
  3 12  1  0
  3 20  1  0
  4 17  1  0
  4 23  2  0
  4 27  1  0
  5  6  1  0
  6 12  1  0
  6 21  1  0
  7  9  1  0
  7 18  1  0
  7 32  1  0
  8 32  2  0
  9 24  1  0
  9 31  2  0
 10 29  2  0
 11 31  1  0
 13 20  1  0
 14 32  1  0
 15 17  1  0
 15 26  1  0
 15 29  1  0
 16 30  1  0
 18 27  1  0
 19 22  1  0
 19 30  1  0
 20 30  2  3
 22 28  1  0
 22 29  1  0
 24 25  2  0
 24 26  1  0
 25 28  1  0
 26 27  1  0
M  END
>  <ID>  (1) 
conformer_0

$$$$
