
     RDKit          3D

 26 29  0  0  0  0  0  0  0  0999 V2000
   21.5897   10.8419  -16.8852 O   0  0  0  0  0  0  0  0  0  0  0  0
   24.2176    9.2636  -12.3580 Cl  0  0  0  0  0  0  0  0  0  0  0  0
   22.6182   10.8246  -16.1913 C   0  0  0  0  0  0  0  0  0  0  0  0
   21.8095   12.6106   -8.3325 C   0  0  0  0  0  0  0  0  0  0  0  0
   22.6724    9.1463  -14.4323 C   0  0  0  0  0  0  0  0  0  0  0  0
   20.6333   11.2598  -10.0426 C   0  0  0  0  0  0  0  0  0  0  0  0
   20.4709   10.6767   -7.7178 C   0  0  0  0  0  0  0  0  0  0  0  0
   22.4537   15.1666  -12.8801 O   0  0  0  0  0  0  0  0  0  0  0  0
   21.2660   11.7421   -7.3307 C   0  0  0  0  0  0  0  0  0  0  0  0
   22.5758   13.0381  -14.2398 C   0  0  0  0  0  0  0  0  0  0  0  0
   22.0390   12.9284  -11.9595 C   0  0  0  0  0  0  0  0  0  0  0  0
   20.9542   10.4582  -12.3157 O   0  0  0  0  0  0  0  0  0  0  0  0
   19.9495   10.7689  -11.3680 C   0  0  0  0  0  0  0  0  0  0  0  0
   21.7679   11.6434  -12.6091 C   0  0  0  0  0  0  0  0  0  0  0  0
   23.8240   10.9704  -16.5368 O   0  0  0  0  0  0  0  0  0  0  0  0
   23.4746    8.5754  -13.4825 C   0  0  0  0  0  0  0  0  0  0  0  0
   21.4935   11.9646   -6.0483 O   0  0  0  0  0  0  0  0  0  0  0  0
   22.4257   10.5070  -14.7427 C   0  0  0  0  0  0  0  0  0  0  0  0
   20.1798   10.4511   -9.0130 C   0  0  0  0  0  0  0  0  0  0  0  0
   23.5209    7.2125  -13.6185 C   0  0  0  0  0  0  0  0  0  0  0  0
   22.4154   13.8314  -12.9821 C   0  0  0  0  0  0  0  0  0  0  0  0
   21.5190   12.3950   -9.6716 C   0  0  0  0  0  0  0  0  0  0  0  0
   22.2472   11.6509  -13.9331 C   0  0  0  0  0  0  0  0  0  0  0  0
   22.1734    8.1150  -15.1947 O   0  0  0  0  0  0  0  0  0  0  0  0
   22.0500   13.2585  -10.6254 O   0  0  0  0  0  0  0  0  0  0  0  0
   22.7228    6.8878  -14.7002 C   0  0  0  0  0  0  0  0  0  0  0  0
  1  3  2  0
  2 16  1  0
  3 15  1  0
  3 18  1  0
  4  9  2  0
  4 22  1  0
  5 16  2  0
  5 18  1  0
  5 24  1  0
  6 13  1  0
  6 19  1  0
  6 22  2  0
  7  9  1  0
  7 19  2  0
  8 21  1  0
  9 17  1  0
 10 21  1  0
 10 23  1  0
 11 14  1  0
 11 21  1  0
 11 25  1  0
 12 13  1  0
 12 14  1  0
 14 23  1  0
 16 20  1  0
 18 23  1  0
 20 26  1  0
 22 25  1  0
 24 26  1  0
M  END
>  <ID>  (1) 
conformer_0

$$$$
