
     RDKit          3D

 25 26  0  0  0  0  0  0  0  0999 V2000
   24.8717    8.9987  -14.8023 C   0  0  0  0  0  0  0  0  0  0  0  0
   21.8144   11.9371  -13.6185 C   0  0  0  0  0  0  0  0  0  0  0  0
   22.7980   14.2340  -13.3754 O   0  0  0  0  0  0  0  0  0  0  0  0
   19.6235   10.7502   -9.4353 O   0  0  0  0  0  0  0  0  0  0  0  0
   21.7018   11.7938  -15.1284 C   0  0  0  0  0  0  0  0  0  0  0  0
   22.4958    9.5145  -14.7202 C   0  0  0  0  0  0  0  0  0  0  0  0
   24.0390    7.6999  -14.6076 C   0  0  0  0  0  0  0  0  0  0  0  0
   20.9488   14.7084  -11.1087 C   0  0  0  0  0  0  0  0  0  0  0  0
   23.8937   10.1729  -14.6512 C   0  0  0  0  0  0  0  0  0  0  0  0
   21.5761   12.1877   -7.1058 C   0  0  0  0  0  0  0  0  0  0  0  0
   21.6350   13.3505  -11.3520 C   0  0  0  0  0  0  0  0  0  0  0  0
   20.9000   11.3510   -9.6149 C   0  0  0  0  0  0  0  0  0  0  0  0
   19.9640   11.4921  -11.8607 C   0  0  0  0  0  0  0  0  0  0  0  0
   24.4476    6.5824  -15.4896 C   0  0  0  0  0  0  0  0  0  0  0  0
   22.8500   13.2747  -10.5919 O   0  0  0  0  0  0  0  0  0  0  0  0
   21.4262   11.5128   -6.0133 O   0  0  0  0  0  0  0  0  0  0  0  0
   20.6441   12.3249  -10.7615 C   0  0  0  0  0  0  0  0  0  0  0  0
   22.6555    8.1351  -15.0225 O   0  0  0  0  0  0  0  0  0  0  0  0
   20.9152   10.9146  -12.9298 C   0  0  0  0  0  0  0  0  0  0  0  0
   23.9017    7.3929  -13.1208 C   0  0  0  0  0  0  0  0  0  0  0  0
   21.3953   10.2686  -15.4434 C   0  0  0  0  0  0  0  0  0  0  0  0
   22.1891   13.2800   -7.1090 O   0  0  0  0  0  0  0  0  0  0  0  0
   21.4565   11.5582   -8.3210 C   0  0  0  0  0  0  0  0  0  0  0  0
   21.8970   13.2473  -12.8877 C   0  0  0  0  0  0  0  0  0  0  0  0
   21.9057   10.3646  -10.2377 C   0  0  0  0  0  0  0  0  0  0  0  0
  1  7  1  0
  1  9  1  0
  2  5  1  0
  2 19  1  0
  2 24  1  0
  3 24  1  0
  4 12  1  0
  5 21  1  0
  6  9  1  0
  6 18  1  0
  6 21  1  0
  7 14  1  0
  7 18  1  0
  7 20  1  0
  8 11  1  0
 10 16  2  0
 10 22  1  0
 10 23  1  0
 11 15  1  0
 11 17  1  0
 11 24  1  0
 12 17  1  0
 12 23  1  0
 12 25  1  0
 13 17  1  0
 13 19  1  0
M  END
>  <ID>  (1) 
conformer_0

$$$$
