
     RDKit          3D

 32 35  0  0  0  0  0  0  0  0999 V2000
   22.8924   10.8660  -15.2105 C   0  0  0  0  0  0  0  0  0  0  0  0
   22.6541    7.4721  -13.2747 O   0  0  0  0  0  0  0  0  0  0  0  0
   22.0631   10.1578  -11.4519 C   0  0  0  0  0  0  0  0  0  0  0  0
   22.5139   10.9267  -13.7799 C   0  0  0  0  0  0  0  0  0  0  0  0
   24.5024   12.7372  -15.3740 O   0  0  0  0  0  0  0  0  0  0  0  0
   22.3172   13.1586  -17.1225 C   0  0  0  0  0  0  0  0  0  0  0  0
   23.2381   13.3105  -10.3236 O   0  0  0  0  0  1  0  0  0  0  0  0
   23.7392    8.5401  -11.5641 O   0  0  0  0  0  0  0  0  0  0  0  0
   23.1107    8.5684  -12.8717 C   0  0  0  0  0  0  0  0  0  0  0  0
   21.6916   13.1896  -14.4381 C   0  0  0  0  0  0  0  0  0  0  0  0
   21.4368   11.4290  -11.0534 C   0  0  0  0  0  0  0  0  0  0  0  0
   20.8558   10.0771   -7.6392 C   0  0  0  0  0  0  0  0  0  0  0  0
   20.8999   13.9458  -12.1337 C   0  0  0  0  0  0  0  0  0  0  0  0
   23.3304   12.0704  -17.4001 C   0  0  0  0  0  0  0  0  0  0  0  0
   19.5861   11.9796  -12.5347 C   0  0  0  0  0  0  0  0  0  0  0  0
   25.1399   10.6706  -16.2591 C   0  0  0  0  0  0  0  0  0  0  0  0
   23.9522   11.6177  -15.9807 C   0  0  0  0  0  0  0  0  0  0  0  0
   21.0432   12.3844  -12.1848 C   0  0  0  0  0  0  0  0  0  0  0  0
   21.0992   10.8591   -6.5668 C   0  0  0  0  0  0  0  0  0  0  0  0
   21.9828   10.0250  -15.9939 C   0  0  0  0  0  0  0  0  0  0  0  0
   20.7766   14.3505  -10.7029 C   0  0  0  0  0  0  0  0  0  0  0  0
   22.2993    9.7900  -12.8713 C   0  0  0  0  0  0  0  0  0  0  0  0
   21.4885   12.0604   -6.5958 S   0  0  0  0  0  0  0  0  0  0  0  0
   22.8542    9.1835  -10.6117 C   0  0  0  0  0  0  0  0  0  0  0  0
   21.4404   12.9419  -15.9252 C   0  0  0  0  0  0  0  0  0  0  0  0
   21.9465   13.4818   -9.6872 S   0  0  0  0  0  4  0  0  0  0  0  0
   21.9615   14.2120   -8.5312 O   0  0  0  0  0  1  0  0  0  0  0  0
   22.8500   14.4052  -17.2101 O   0  0  0  0  0  0  0  0  0  0  0  0
   21.3902   11.6074   -9.5756 C   0  0  0  0  0  0  0  0  0  0  0  0
   18.6548   12.6281  -11.6586 O   0  0  0  0  0  0  0  0  0  0  0  0
   21.9635   12.1853  -13.3576 C   0  0  0  0  0  0  0  0  0  0  0  0
   21.0033   10.4138   -8.8806 C   0  0  0  0  0  0  0  0  0  0  0  0
  1  4  1  0
  1 17  1  0
  1 20  1  0
  2  9  1  0
  3 11  2  0
  3 22  1  0
  3 24  1  0
  4 22  1  0
  4 31  1  0
  5 17  1  0
  6 14  1  0
  6 25  1  0
  6 28  1  0
  7 26  1  0
  8  9  1  0
  8 24  1  0
  9 22  1  0
 10 25  1  0
 10 31  1  0
 11 18  1  0
 11 29  1  0
 12 19  1  0
 12 32  2  3
 13 18  1  0
 13 21  1  0
 14 17  1  0
 15 18  1  0
 15 30  1  0
 16 17  1  0
 18 31  1  0
 19 23  2  0
 21 26  1  0
 26 27  1  0
 26 29  1  0
 29 32  1  0
M  END
>  <ID>  (1) 
conformer_0

$$$$
