
     RDKit          3D

 22 22  0  0  0  0  0  0  0  0999 V2000
   20.5799    9.8123  -11.5840 C   0  0  0  0  0  0  0  0  0  0  0  0
   21.0160   14.0784  -12.7606 O   0  0  0  0  0  0  0  0  0  0  0  0
   21.2545   10.7468   -9.4139 C   0  0  0  0  0  0  0  0  0  0  0  0
   21.9259   14.3735   -8.7948 O   0  0  0  0  0  0  0  0  0  0  0  0
   21.9299   13.7260  -13.5740 C   0  0  0  0  0  0  0  0  0  0  0  0
   21.8614   13.1483   -8.4541 C   0  0  0  0  0  0  0  0  0  0  0  0
   22.8259   10.0532  -12.6681 C   0  0  0  0  0  0  0  0  0  0  0  0
   21.7304   12.1727   -9.5585 C   0  0  0  0  0  0  0  0  0  0  0  0
   22.8422   12.3434  -10.5565 C   0  0  0  0  0  0  0  0  0  0  0  0
   22.4439    9.8312   -9.9837 C   0  0  0  0  0  0  0  0  0  0  0  0
   25.7259    9.0565  -14.8393 C   0  0  0  0  0  0  0  0  0  0  0  0
   24.0132    9.3607  -13.1174 C   0  0  0  0  0  0  0  0  0  0  0  0
   22.2507   11.0284  -13.6301 C   0  0  0  0  0  0  0  0  0  0  0  0
   24.4763    9.6627  -14.4092 O   0  0  0  0  0  0  0  0  0  0  0  0
   20.1002   10.3767  -10.3127 C   0  0  0  0  0  0  0  0  0  0  0  0
   24.5366    8.5684  -12.2243 O   0  0  0  0  0  0  0  0  0  0  0  0
   21.4517   13.0473  -14.8003 C   0  0  0  0  0  0  0  0  0  0  0  0
   23.1421   13.9122  -13.2627 O   0  0  0  0  0  0  0  0  0  0  0  0
   22.1205    9.5132  -11.4872 C   0  0  0  0  0  0  0  0  0  0  0  0
   18.9638   11.0705  -10.2052 O   0  0  0  0  0  0  0  0  0  0  0  0
   21.8808   12.7408   -7.2661 O   0  0  0  0  0  0  0  0  0  0  0  0
   22.2144   11.7162  -14.9812 C   0  0  0  0  0  0  0  0  0  0  0  0
  1 15  1  0
  1 19  1  0
  2  5  2  0
  3  8  1  0
  3 10  1  0
  3 15  1  0
  4  6  2  0
  5 17  1  0
  5 18  1  0
  6  8  1  0
  6 21  1  0
  7 12  1  0
  7 13  1  0
  7 19  1  0
  8  9  1  0
 10 19  1  0
 11 14  1  0
 12 14  1  0
 12 16  2  0
 13 22  1  0
 15 20  1  0
 17 22  1  0
M  END
>  <ID>  (1) 
conformer_0

$$$$
