
     RDKit          3D

 18 18  0  0  0  0  0  0  0  0999 V2000
   21.6472   10.0958   -9.5379 C   0  0  0  0  0  0  0  0  0  0  0  0
   21.3010   12.1824  -11.0799 C   0  0  0  0  0  0  0  0  0  0  0  0
   19.0938   11.9194  -12.2772 C   0  0  0  0  0  0  0  0  0  0  0  0
   22.0967   13.5430   -7.6789 O   0  0  0  0  0  0  0  0  0  0  0  0
   23.4820   10.1202  -14.5511 C   0  0  0  0  0  0  0  0  0  0  0  0
   20.8153   11.5735   -7.5120 C   0  0  0  0  0  0  0  0  0  0  0  0
   22.3082   10.7802  -13.7246 C   0  0  0  0  0  0  0  0  0  0  0  0
   20.9842   12.8044   -9.7059 C   0  0  0  0  0  0  0  0  0  0  0  0
   21.0355   10.1804   -8.0414 C   0  0  0  0  0  0  0  0  0  0  0  0
   21.5843   12.5618   -8.3573 C   0  0  0  0  0  0  0  0  0  0  0  0
   22.1024   10.0419  -12.3379 C   0  0  0  0  0  0  0  0  0  0  0  0
   24.0457   11.1536  -15.6025 C   0  0  0  0  0  0  0  0  0  0  0  0
   20.3549   12.8242  -12.1427 C   0  0  0  0  0  0  0  0  0  0  0  0
   24.8125    9.4470  -13.9577 C   0  0  0  0  0  0  0  0  0  0  0  0
   21.1082   14.3040   -9.9952 C   0  0  0  0  0  0  0  0  0  0  0  0
   22.7995    8.8942  -15.2703 C   0  0  0  0  0  0  0  0  0  0  0  0
   21.5765   10.7203  -11.0510 C   0  0  0  0  0  0  0  0  0  0  0  0
   22.4850   14.5387  -10.3856 O   0  0  0  0  0  0  0  0  0  0  0  0
  1  9  1  0
  1 17  1  0
  2  8  1  0
  2 13  1  0
  2 17  1  0
  3 13  1  0
  4 10  1  0
  5  7  1  0
  5 12  1  0
  5 14  1  0
  5 16  1  0
  6  9  1  0
  6 10  1  0
  7 11  1  0
  8 10  1  0
  8 15  1  0
 11 17  2  3
 15 18  1  0
M  END
>  <ID>  (1) 
conformer_0

$$$$
