
     RDKit          3D

 27 28  0  0  0  0  0  0  0  0999 V2000
   23.6840    9.6600  -14.6644 C   0  0  0  0  0  0  0  0  0  0  0  0
   23.1510    8.1688  -12.1751 C   0  0  0  0  0  0  0  0  0  0  0  0
   25.7116    7.6272  -16.1088 C   0  0  0  0  0  0  0  0  0  0  0  0
   21.4537   11.4602  -12.2987 C   0  0  0  0  0  0  0  0  0  0  0  0
   23.0292   10.6322  -13.9582 C   0  0  0  0  0  0  0  0  0  0  0  0
   21.3956   13.9612  -11.8746 C   0  0  0  0  0  0  0  0  0  0  0  0
   21.1204   13.6486  -10.5321 O   0  0  0  0  0  0  0  0  0  0  0  0
   22.6994    9.4042  -11.8326 C   0  0  0  0  0  0  0  0  0  0  0  0
   21.7108   12.7783  -12.7107 C   0  0  0  0  0  0  0  0  0  0  0  0
   23.9120    8.3353  -14.5099 C   0  0  0  0  0  0  0  0  0  0  0  0
   21.8707   15.1759  -12.1737 N   0  0  0  0  0  0  0  0  0  0  0  0
   22.3906   10.4808  -12.7119 C   0  0  0  0  0  0  0  0  0  0  0  0
   22.3326   12.9645  -13.9399 C   0  0  0  0  0  0  0  0  0  0  0  0
   26.6296    7.9071  -15.3029 O   0  0  0  0  0  0  0  0  0  0  0  0
   20.1484   10.9459  -11.6727 C   0  0  0  0  0  0  0  0  0  0  0  0
   19.3494   11.5806  -10.8504 O   0  0  0  0  0  0  0  0  0  0  0  0
   25.9097    7.3678  -17.3711 O   0  0  0  0  0  0  0  0  0  0  0  0
   22.0134   12.7643   -9.7921 C   0  0  0  0  0  0  0  0  0  0  0  0
   23.6571    7.6924  -13.2945 C   0  0  0  0  0  0  0  0  0  0  0  0
   24.3523    7.4786  -15.6130 C   0  0  0  0  0  0  0  0  0  0  0  0
   21.0280   11.7790   -7.5858 C   0  0  0  0  0  0  0  0  0  0  0  0
   21.6435   11.7889   -6.1728 C   0  0  0  0  0  0  0  0  0  0  0  0
   22.9781   11.9112  -14.5691 C   0  0  0  0  0  0  0  0  0  0  0  0
   21.7249   12.8273   -8.3715 C   0  0  0  0  0  0  0  0  0  0  0  0
   19.7614    9.4619  -11.8636 C   0  0  0  0  0  0  0  0  0  0  0  0
   22.6144    9.6760  -10.3491 C   0  0  0  0  0  0  0  0  0  0  0  0
   22.1768   13.8042   -7.7599 O   0  0  0  0  0  0  0  0  0  0  0  0
  1  5  1  0
  1 10  2  0
  2  8  1  0
  2 19  2  0
  3 14  2  0
  3 17  1  0
  3 20  1  0
  4  9  1  0
  4 12  1  0
  4 15  1  0
  5 12  1  0
  5 23  2  0
  6  7  1  0
  6  9  2  3
  6 11  1  0
  7 18  1  0
  8 12  1  0
  8 26  1  0
  9 13  1  0
 10 19  1  0
 10 20  1  0
 13 23  1  0
 15 16  1  0
 15 25  1  0
 18 24  1  0
 21 22  1  0
 21 24  1  0
 24 27  2  0
M  END
>  <ID>  (1) 
conformer_0

$$$$
