
     RDKit          3D

 37 39  0  0  0  0  0  0  0  0999 V2000
   22.7074   13.5741  -15.9426 C   0  0  0  0  0  0  0  0  0  0  0  0
   22.2743   12.9691   -6.9186 O   0  0  0  0  0  0  0  0  0  0  0  0
   20.2651   11.7469  -13.1657 O   0  0  0  0  0  0  0  0  0  0  0  0
   21.5213   12.9699  -16.5766 C   0  0  0  0  0  0  0  0  0  0  0  0
   24.2641    7.2490  -15.5186 C   0  0  0  0  0  0  0  0  0  0  0  0
   26.3143    6.0706  -15.3621 N   0  0  0  0  0  0  0  0  0  0  0  0
   22.4794    9.5036  -10.1786 C   0  0  0  0  0  0  0  0  0  0  0  0
   21.3298   13.6851  -13.8742 C   0  0  0  0  0  0  0  0  0  0  0  0
   21.9447   11.9198   -6.0157 C   0  0  0  0  0  0  0  0  0  0  0  0
   25.1942   13.3731  -16.0009 O   0  0  0  0  0  0  0  0  0  0  0  0
   22.5493    8.6712  -14.3835 C   0  0  0  0  0  0  0  0  0  0  0  0
   20.8214   11.9162   -9.4633 C   0  0  0  0  0  0  0  0  0  0  0  0
   18.7121   12.0837  -11.5473 O   0  0  0  0  0  0  0  0  0  0  0  0
   21.7664   10.3115  -11.0909 C   0  0  0  0  0  0  0  0  0  0  0  0
   20.8812   11.3870  -10.7664 N   0  0  0  0  0  0  0  0  0  0  0  0
   23.6503   13.3835  -13.6284 O   0  0  0  0  0  0  0  0  0  0  0  0
   20.8811   11.9699  -15.7045 C   0  0  0  0  0  0  0  0  0  0  0  0
   22.6871   13.6341  -14.4638 C   0  0  0  0  0  0  0  0  0  0  0  0
   23.3084    8.1544  -12.0080 C   0  0  0  0  0  0  0  0  0  0  0  0
   25.5342    7.1219  -15.0014 C   0  0  0  0  0  0  0  0  0  0  0  0
   23.2310    8.4472  -10.6454 C   0  0  0  0  0  0  0  0  0  0  0  0
   21.1501   11.0581   -8.4256 N   0  0  0  0  0  0  0  0  0  0  0  0
   23.9825   12.8577  -17.8369 O   0  0  0  0  0  0  0  0  0  0  0  0
   25.8197    5.1040  -16.1572 C   0  0  0  0  0  0  0  0  0  0  0  0
   23.7820    6.2340  -16.3199 C   0  0  0  0  0  0  0  0  0  0  0  0
   24.5677    5.1701  -16.6740 C   0  0  0  0  0  0  0  0  0  0  0  0
   20.0182   11.8345  -11.8181 C   0  0  0  0  0  0  0  0  0  0  0  0
   20.5671   10.3480   -7.3752 C   0  0  0  0  0  0  0  0  0  0  0  0
   20.4784   12.5412  -14.3867 C   0  0  0  0  0  0  0  0  0  0  0  0
   22.6041    8.9746  -12.9436 C   0  0  0  0  0  0  0  0  0  0  0  0
   21.2910   10.5602   -6.0398 C   0  0  0  0  0  0  0  0  0  0  0  0
   24.0307   13.1653  -16.5755 C   0  0  0  0  0  0  0  0  0  0  0  0
   21.3885    9.3345  -15.1001 C   0  0  0  0  0  0  0  0  0  0  0  0
   23.5983    8.4990  -15.3116 C   0  0  0  0  0  0  0  0  0  0  0  0
   21.9314    9.9811  -12.3989 C   0  0  0  0  0  0  0  0  0  0  0  0
   20.4645   13.1092   -9.3426 O   0  0  0  0  0  0  0  0  0  0  0  0
   21.1849   14.2795  -16.2045 O   0  0  0  0  0  0  0  0  0  0  0  0
  1  4  1  0
  1 18  1  0
  1 32  1  0
  2  9  1  0
  3 27  1  0
  3 29  1  0
  4 17  1  0
  4 37  1  0
  5 20  1  0
  5 25  2  0
  5 34  1  0
  6 20  2  0
  6 24  1  0
  7 14  2  0
  7 21  1  0
  8 18  1  0
  8 29  1  0
  9 31  1  0
 10 32  2  0
 11 30  1  0
 11 33  1  0
 11 34  1  0
 12 15  1  0
 12 22  1  0
 12 36  2  0
 13 27  2  0
 14 15  1  0
 14 35  1  0
 15 27  1  0
 16 18  1  0
 17 29  1  0
 19 21  2  0
 19 30  1  0
 22 28  1  0
 23 32  1  0
 24 26  2  0
 25 26  1  0
 28 31  1  0
 30 35  2  0
M  END
>  <ID>  (1) 
conformer_0

$$$$
