
     RDKit          3D

 21 23  0  0  0  0  0  0  0  0999 V2000
   21.9578   12.4669   -9.9973 N   0  0  0  0  0  0  0  0  0  0  0  0
   21.6979   13.8042  -12.8087 C   0  0  0  0  0  0  0  0  0  0  0  0
   23.6291    7.7236  -14.3371 C   0  0  0  0  0  0  0  0  0  0  0  0
   24.5938    8.9114  -14.2086 C   0  0  0  0  0  0  0  0  0  0  0  0
   19.3827   12.7724  -11.8884 C   0  0  0  0  0  0  0  0  0  0  0  0
   22.4579   11.9669  -11.1396 C   0  0  0  0  0  0  0  0  0  0  0  0
   21.7567    9.5010   -9.3127 N   0  0  0  0  0  0  0  0  0  0  0  0
   23.2027    7.8800  -12.8925 C   0  0  0  0  0  0  0  0  0  0  0  0
   22.7777   12.8546  -12.2650 C   0  0  0  0  0  0  0  0  0  0  0  0
   24.2249    9.0031  -12.6642 C   0  0  0  0  0  0  0  0  0  0  0  0
   21.1440   10.4194   -7.1078 O   0  0  0  0  0  0  0  0  0  0  0  0
   21.6882   11.9407   -8.8393 C   0  0  0  0  0  0  0  0  0  0  0  0
   25.8939    8.6913  -14.3587 O   0  0  0  0  0  0  0  0  0  0  0  0
   21.5463   10.5684   -8.5432 C   0  0  0  0  0  0  0  0  0  0  0  0
   22.7512   10.5652  -11.2985 C   0  0  0  0  0  0  0  0  0  0  0  0
   22.3538    9.5980  -10.4633 C   0  0  0  0  0  0  0  0  0  0  0  0
   23.5453   10.1952  -12.4302 O   0  0  0  0  0  0  0  0  0  0  0  0
   21.4816   12.6892   -7.6762 N   0  0  0  0  0  0  0  0  0  0  0  0
   20.4172   12.9583  -13.1396 C   0  0  0  0  0  0  0  0  0  0  0  0
   22.4200   14.6576  -13.9011 C   0  0  0  0  0  0  0  0  0  0  0  0
   21.2018   11.8198   -6.6378 C   0  0  0  0  0  0  0  0  0  0  0  0
  1  6  1  0
  1 12  1  0
  2  9  1  0
  2 19  1  0
  2 20  1  0
  3  4  1  0
  3  8  1  0
  4 10  1  0
  4 13  1  0
  5 19  1  0
  6  9  1  0
  6 15  2  0
  7 14  1  0
  7 16  2  0
  8 10  1  0
 10 17  1  0
 11 14  1  0
 11 21  1  0
 12 14  2  0
 12 18  1  0
 15 16  1  0
 15 17  1  0
 18 21  1  0
M  END
>  <ID>  (1) 
conformer_0

$$$$
