
     RDKit          3D

 21 22  0  0  0  0  0  0  0  0999 V2000
   22.2079   14.1012  -13.1639 C   0  0  0  0  0  0  0  0  0  0  0  0
   25.4477    7.8963  -15.0206 C   0  0  0  0  0  0  0  0  0  0  0  0
   24.2722    8.3751  -14.3859 C   0  0  0  0  0  0  0  0  0  0  0  0
   19.9120   10.8180   -8.6771 C   0  0  0  0  0  0  0  0  0  0  0  0
   21.5443   11.5591  -10.6393 C   0  0  0  0  0  0  0  0  0  0  0  0
   20.8625   10.3517  -10.7728 C   0  0  0  0  0  0  0  0  0  0  0  0
   22.9406   10.4104  -13.7251 C   0  0  0  0  0  0  0  0  0  0  0  0
   22.7310   13.6623  -14.6079 C   0  0  0  0  0  0  0  0  0  0  0  0
   22.2074   13.5178   -7.4582 O   0  0  0  0  0  0  0  0  0  0  0  0
   22.3594   12.1722  -11.5635 C   0  0  0  0  0  0  0  0  0  0  0  0
   19.6426   10.6856  -10.0817 C   0  0  0  0  0  0  0  0  0  0  0  0
   21.8356   12.5490  -12.8770 C   0  0  0  0  0  0  0  0  0  0  0  0
   23.5902    7.7868  -13.3743 O   0  0  0  0  0  0  0  0  0  0  0  0
   21.6519   12.4489   -7.1505 C   0  0  0  0  0  0  0  0  0  0  0  0
   21.5556   12.1310   -9.4510 N   0  0  0  0  0  0  0  0  0  0  0  0
   22.7511   11.9835  -14.0296 C   0  0  0  0  0  0  0  0  0  0  0  0
   20.9319   11.7314   -8.2731 C   0  0  0  0  0  0  0  0  0  0  0  0
   21.6664   11.9274   -6.0100 O   0  0  0  0  0  0  0  0  0  0  0  0
   23.7611    9.6978  -14.7783 C   0  0  0  0  0  0  0  0  0  0  0  0
   20.3202   12.3731  -13.0845 C   0  0  0  0  0  0  0  0  0  0  0  0
   24.6988   10.5651  -15.3755 O   0  0  0  0  0  0  0  0  0  0  0  0
  1  8  1  0
  1 12  1  0
  2  3  1  0
  3 13  1  0
  3 19  1  0
  4 11  1  0
  4 17  2  0
  5  6  1  0
  5 10  1  0
  5 15  2  0
  6 11  1  0
  7 16  1  0
  7 19  1  0
  8 16  1  0
  9 14  2  0
 10 12  1  0
 12 16  1  0
 12 20  1  0
 14 17  1  0
 14 18  1  0
 15 17  1  0
 19 21  1  0
M  END
>  <ID>  (1) 
conformer_0

$$$$
