
     RDKit          3D

 31 33  0  0  0  0  0  0  0  0999 V2000
   21.9874   13.3855   -9.6089 C   0  0  0  0  0  0  0  0  0  0  0  0
   22.4420    7.6622  -14.5753 C   0  0  0  0  0  0  0  0  0  0  0  0
   21.3827   11.2895  -10.5509 C   0  0  0  0  0  0  0  0  0  0  0  0
   21.2844    8.2115  -14.1233 C   0  0  0  0  0  0  0  0  0  0  0  0
   23.3746   12.0704  -15.3082 C   0  0  0  0  0  0  0  0  0  0  0  0
   19.3714   11.8165  -11.7870 C   0  0  0  0  0  0  0  0  0  0  0  0
   21.5246   11.8506   -6.4702 C   0  0  0  0  0  0  0  0  0  0  0  0
   22.3175   13.3743  -13.5968 C   0  0  0  0  0  0  0  0  0  0  0  0
   24.8890    7.2158  -14.7673 C   0  0  0  0  0  0  0  0  0  0  0  0
   22.6094   12.1049  -10.0728 C   0  0  0  0  0  0  0  0  0  0  0  0
   25.9531    7.9352  -14.9230 O   0  0  0  0  0  0  0  0  0  0  0  0
   21.1076   13.0020   -8.5759 N   0  0  0  0  0  0  0  0  0  0  0  0
   22.6332   12.1802  -14.1891 C   0  0  0  0  0  0  0  0  0  0  0  0
   22.8349   14.4965  -14.1763 N   0  0  0  0  0  0  0  0  0  0  0  0
   19.1995   10.3139  -11.5755 C   0  0  0  0  0  0  0  0  0  0  0  0
   21.4477   13.4850  -12.3443 C   0  0  0  0  0  0  0  0  0  0  0  0
   21.5927   11.0927  -11.9181 C   0  0  0  0  0  0  0  0  0  0  0  0
   22.2911   14.5193   -9.8922 O   0  0  0  0  0  0  0  0  0  0  0  0
   23.7386    7.8349  -14.0628 C   0  0  0  0  0  0  0  0  0  0  0  0
   21.2491   10.9139   -5.6577 O   0  0  0  0  0  0  0  0  0  0  0  0
   21.2221   11.6767   -7.8944 C   0  0  0  0  0  0  0  0  0  0  0  0
   24.0627    8.5593  -12.9358 C   0  0  0  0  0  0  0  0  0  0  0  0
   20.8301   12.1952  -11.8364 C   0  0  0  0  0  0  0  0  0  0  0  0
   23.3576    9.4318  -12.2260 C   0  0  0  0  0  0  0  0  0  0  0  0
   23.9152   13.1758  -15.8807 N   0  0  0  0  0  0  0  0  0  0  0  0
   22.1965   12.7886   -6.1749 O   0  0  0  0  0  0  0  0  0  0  0  0
   24.8134    6.0040  -15.0568 O   0  0  0  0  0  0  0  0  0  0  0  0
   23.6195   14.3776  -15.2757 C   0  0  0  0  0  0  0  0  0  0  0  0
   19.6723    9.4397  -12.6849 C   0  0  0  0  0  0  0  0  0  0  0  0
   21.0636    9.0970  -13.1273 C   0  0  0  0  0  0  0  0  0  0  0  0
   22.0743    9.8645  -12.4086 C   0  0  0  0  0  0  0  0  0  0  0  0
  1 10  1  0
  1 12  1  0
  1 18  2  0
  2  4  1  0
  2 19  2  0
  3 10  1  0
  3 17  1  0
  4 30  2  0
  5 13  2  0
  5 25  1  0
  6 15  1  0
  6 23  1  0
  7 20  2  0
  7 21  1  0
  7 26  1  0
  8 13  1  0
  8 14  1  0
  8 16  2  3
  9 11  2  0
  9 19  1  0
  9 27  1  0
 12 21  1  0
 14 28  2  0
 15 29  1  0
 16 23  1  0
 17 23  1  0
 17 31  1  0
 19 22  1  0
 22 24  2  0
 24 31  1  0
 25 28  1  0
 29 30  1  0
 30 31  1  0
M  END
>  <ID>  (1) 
conformer_0

$$$$
