
     RDKit          3D

 27 29  0  0  0  0  0  0  0  0999 V2000
   22.8071    7.8244  -12.2518 C   0  0  0  0  0  0  0  0  0  0  0  0
   21.8945   12.2102  -14.4077 C   0  0  0  0  0  0  0  0  0  0  0  0
   21.1338   11.7177   -7.5146 C   0  0  0  0  0  0  0  0  0  0  0  0
   22.5354    9.9354  -13.5236 C   0  0  0  0  0  0  0  0  0  0  0  0
   25.6634    8.0563  -14.9058 C   0  0  0  0  0  0  0  0  0  0  0  0
   26.4567    9.0599  -14.7984 O   0  0  0  0  0  0  0  0  0  0  0  0
   22.4355    9.2509  -12.1341 C   0  0  0  0  0  0  0  0  0  0  0  0
   22.4293   14.2047   -9.8509 O   0  0  0  0  0  0  0  0  0  0  0  0
   22.0959   12.6324   -8.0602 C   0  0  0  0  0  0  0  0  0  0  0  0
   21.0822   12.3495  -10.3000 N   0  0  0  0  0  0  0  0  0  0  0  0
   20.2077   11.3069   -9.7616 C   0  0  0  0  0  0  0  0  0  0  0  0
   19.0109   10.8687  -10.6601 C   0  0  0  0  0  0  0  0  0  0  0  0
   21.1261   12.4925  -11.7168 O   0  0  0  0  0  0  0  0  0  0  0  0
   21.1943    9.6541  -14.2682 C   0  0  0  0  0  0  0  0  0  0  0  0
   24.2784    8.2232  -14.3496 C   0  0  0  0  0  0  0  0  0  0  0  0
   22.5403   12.2613  -15.6015 O   0  0  0  0  0  0  0  0  0  0  0  0
   21.8844   14.9047  -13.1700 O   0  0  0  0  0  0  0  0  0  0  0  0
   20.3449   10.8614   -8.3759 C   0  0  0  0  0  0  0  0  0  0  0  0
   22.4701   12.7932  -12.3091 C   0  0  0  0  0  0  0  0  0  0  0  0
   21.3355   11.1944   -6.2146 O   0  0  0  0  0  0  0  0  0  0  0  0
   23.7735    9.6174  -14.3304 C   0  0  0  0  0  0  0  0  0  0  0  0
   21.5773   12.1756   -5.3213 N   0  0  0  0  0  0  0  0  0  0  0  0
   23.2490    7.3325  -13.6798 C   0  0  0  0  0  0  0  0  0  0  0  0
   21.9501   13.1212   -9.4531 C   0  0  0  0  0  0  0  0  0  0  0  0
   26.0249    6.9164  -15.2247 O   0  0  0  0  0  0  0  0  0  0  0  0
   22.6813   11.5070  -13.2446 C   0  0  0  0  0  0  0  0  0  0  0  0
   21.8546   13.5960  -13.6972 C   0  0  0  0  0  0  0  0  0  0  0  0
  1  7  1  0
  1 23  1  0
  2 16  1  0
  2 26  1  0
  2 27  1  0
  3  9  1  0
  3 18  1  0
  3 20  1  0
  4  7  1  0
  4 14  1  0
  4 21  1  0
  4 26  1  0
  5  6  2  0
  5 15  1  0
  5 25  1  0
  8 24  2  0
  9 24  1  0
 10 11  1  0
 10 13  1  0
 10 24  1  0
 11 12  1  0
 11 18  1  0
 13 19  1  0
 15 21  2  0
 15 23  1  0
 17 27  1  0
 19 26  1  0
 19 27  1  0
 20 22  1  0
M  END
>  <ID>  (1) 
conformer_0

$$$$
