
     RDKit          3D

 30 32  0  0  0  0  0  0  0  0999 V2000
   23.2349    9.7382  -13.4702 C   0  0  0  0  0  0  0  0  0  0  0  0
   26.3104    9.5341  -17.0007 O   0  0  0  0  0  1  0  0  0  0  0  0
   20.8653   11.8342  -14.2224 O   0  0  0  0  0  0  0  0  0  0  0  0
   22.3939   11.1535  -11.5698 C   0  0  0  0  0  0  0  0  0  0  0  0
   19.7070   13.1431  -12.0035 O   0  0  0  0  0  0  0  0  0  0  0  0
   24.5618    8.5911  -15.2065 C   0  0  0  0  0  0  0  0  0  0  0  0
   25.8627    8.2360  -16.4232 P   0  0  0  0  0  4  0  0  0  0  0  0
   24.0598    9.7852  -14.6146 C   0  0  0  0  0  0  0  0  0  0  0  0
   21.6907   12.5769   -9.8208 N   0  0  0  0  0  0  0  0  0  0  0  0
   25.2757    7.2799  -17.5402 O   0  0  0  0  0  0  0  0  0  0  0  0
   22.5895   10.2764  -10.5991 C   0  0  0  0  0  0  0  0  0  0  0  0
   21.1974   11.6952   -8.8401 C   0  0  0  0  0  0  0  0  0  0  0  0
   21.1637   10.9686   -6.5687 N   0  0  0  0  0  0  0  0  0  0  0  0
   22.0448   12.9708   -7.0837 O   0  0  0  0  0  0  0  0  0  0  0  0
   21.0787   14.8069  -10.9635 C   0  0  0  0  0  0  0  0  0  0  0  0
   22.6470    8.9347  -10.5482 C   0  0  0  0  0  0  0  0  0  0  0  0
   22.6417    8.0668  -11.6300 C   0  0  0  0  0  0  0  0  0  0  0  0
   23.3085    7.2953  -13.7180 C   0  0  0  0  0  0  0  0  0  0  0  0
   22.1792   12.0288  -13.7247 C   0  0  0  0  0  0  0  0  0  0  0  0
   22.2396    6.8710  -11.4152 O   0  0  0  0  0  0  0  0  0  0  0  0
   21.0412   13.5956  -11.9027 C   0  0  0  0  0  0  0  0  0  0  0  0
   21.4126   12.0054   -7.4077 C   0  0  0  0  0  0  0  0  0  0  0  0
   23.0571    8.4141  -12.9459 C   0  0  0  0  0  0  0  0  0  0  0  0
   21.8799   12.5077  -11.2763 C   0  0  0  0  0  0  0  0  0  0  0  0
   22.4063   15.1927  -10.6132 O   0  0  0  0  0  0  0  0  0  0  0  0
   22.6359   10.8723  -12.9189 C   0  0  0  0  0  0  0  0  0  0  0  0
   19.8618   11.0528   -9.0925 C   0  0  0  0  0  0  0  0  0  0  0  0
   22.1377   13.2195  -12.7691 C   0  0  0  0  0  0  0  0  0  0  0  0
   26.9189    7.3850  -15.6631 O   0  0  0  0  0  0  0  0  0  0  0  0
   24.0506    7.3463  -14.8101 C   0  0  0  0  0  0  0  0  0  0  0  0
  1  8  2  0
  1 23  1  0
  1 26  1  0
  2  7  2  0
  3 19  1  0
  4 11  1  0
  4 24  1  0
  4 26  2  0
  5 21  1  0
  6  7  1  0
  6  8  1  0
  6 30  1  0
  7 10  1  0
  7 29  1  0
  9 12  1  0
  9 24  1  0
 11 16  2  0
 12 22  1  0
 12 27  1  0
 13 22  1  0
 14 22  2  0
 15 21  1  0
 15 25  1  0
 16 17  1  0
 17 20  2  0
 17 23  1  0
 18 23  1  0
 18 30  2  0
 19 26  1  0
 19 28  1  0
 21 24  1  0
 21 28  1  0
M  END
>  <ID>  (1) 
conformer_0

$$$$
