
     RDKit          3D

 31 33  0  0  0  0  0  0  0  0999 V2000
   23.7173    9.0493  -13.9584 C   0  0  0  0  0  0  0  0  0  0  0  0
   24.8075   12.1381  -16.1418 O   0  0  0  0  0  0  0  0  0  0  0  0
   22.4577    7.5327  -12.6383 C   0  0  0  0  0  0  0  0  0  0  0  0
   23.5990   11.8421  -15.5469 C   0  0  0  0  0  0  0  0  0  0  0  0
   23.0818    6.4929  -13.3066 C   0  0  0  0  0  0  0  0  0  0  0  0
   22.0720    9.9171  -12.1946 C   0  0  0  0  0  0  0  0  0  0  0  0
   22.3485    9.8345  -10.9758 O   0  0  0  0  0  0  0  0  0  0  0  0
   24.4190    7.9530  -14.4866 C   0  0  0  0  0  0  0  0  0  0  0  0
   21.1966   11.3086   -8.7437 C   0  0  0  0  0  0  0  0  0  0  0  0
   20.8292   13.4249  -11.9308 C   0  0  0  0  0  0  0  0  0  0  0  0
   21.7705   13.9878   -9.4361 C   0  0  0  0  0  0  0  0  0  0  0  0
   21.3531   12.1612   -7.7744 C   0  0  0  0  0  0  0  0  0  0  0  0
   24.0640    6.6788  -14.2354 C   0  0  0  0  0  0  0  0  0  0  0  0
   20.5047   11.9774  -11.8306 C   0  0  0  0  0  0  0  0  0  0  0  0
   20.9416   10.0207   -8.5441 C   0  0  0  0  0  0  0  0  0  0  0  0
   21.6040   13.6042   -8.0250 C   0  0  0  0  0  0  0  0  0  0  0  0
   26.0847   10.8699  -18.0303 C   0  0  0  0  0  0  0  0  0  0  0  0
   22.9008   13.1068  -15.0954 O   0  0  0  0  0  0  0  0  0  0  0  0
   20.9221   14.3105  -10.7017 C   0  0  0  0  0  0  0  0  0  0  0  0
   22.7616    8.8353  -12.9789 C   0  0  0  0  0  0  0  0  0  0  0  0
   24.5983   10.6445  -15.9799 C   0  0  0  0  0  0  0  0  0  0  0  0
   21.6892   13.9349  -13.0541 C   0  0  0  0  0  0  0  0  0  0  0  0
   20.8442    9.5487   -7.2922 N   0  0  0  0  0  0  0  0  0  0  0  0
   21.3303   11.0423  -12.5969 N   0  0  0  0  0  0  0  0  0  0  0  0
   21.0691   10.4085   -6.2472 C   0  0  0  0  0  0  0  0  0  0  0  0
   25.6989   10.1333  -16.8952 C   0  0  0  0  0  0  0  0  0  0  0  0
   18.9916   11.5080  -11.3211 C   0  0  0  0  0  0  0  0  0  0  0  0
   21.4969   11.5148  -13.9725 C   0  0  0  0  0  0  0  0  0  0  0  0
   22.0201   12.8846  -14.0218 C   0  0  0  0  0  0  0  0  0  0  0  0
   21.2806   11.7357   -6.4536 C   0  0  0  0  0  0  0  0  0  0  0  0
   25.9877    7.9854  -15.3939 Cl  0  0  0  0  0  0  0  0  0  0  0  0
  1  8  2  0
  1 20  1  0
  2  4  1  0
  3  5  1  0
  3 20  2  0
  4 18  1  0
  4 21  1  0
  5 13  2  0
  6  7  2  0
  6 20  1  0
  6 24  1  0
  8 13  1  0
  8 31  1  0
  9 12  2  0
  9 15  1  0
 10 14  1  0
 10 19  1  0
 10 22  1  0
 11 16  1  0
 11 19  1  0
 12 16  1  0
 12 30  1  0
 14 24  1  0
 14 27  1  0
 15 23  2  0
 17 26  1  0
 18 29  1  0
 21 26  2  3
 22 29  1  0
 23 25  1  0
 24 28  1  0
 25 30  2  0
 28 29  1  0
M  END
>  <ID>  (1) 
conformer_0

$$$$
