
     RDKit          3D

 34 35  0  0  0  0  0  0  0  0999 V2000
   21.6240   12.1100   -9.1302 C   0  0  0  0  0  0  0  0  0  0  0  0
   22.2666   12.2886  -16.7534 C   0  0  0  0  0  0  0  0  0  0  0  0
   22.8200   13.0492  -13.1095 O   0  0  0  0  0  0  0  0  0  0  0  0
   24.3703    8.8765  -13.2530 C   0  0  0  0  0  0  0  0  0  0  0  0
   20.4978   10.0032   -5.8967 O   0  0  0  0  0  0  0  0  0  0  0  0
   18.2569   11.6059  -11.9766 O   0  0  0  0  0  1  0  0  0  0  0  0
   20.2278   13.2577  -11.2324 C   0  0  0  0  0  0  0  0  0  0  0  0
   21.7470   15.0107  -11.2600 O   0  0  0  0  0  0  0  0  0  0  0  0
   25.4249    9.2400  -14.3291 C   0  0  0  0  0  0  0  0  0  0  0  0
   21.6151   11.1782  -10.5784 C   0  0  0  0  0  0  0  0  0  0  0  0
   22.3845    8.7859  -11.3180 C   0  0  0  0  0  0  0  0  0  0  0  0
   23.0574    8.6117  -13.6251 C   0  0  0  0  0  0  0  0  0  0  0  0
   24.7069    8.8846  -11.8651 C   0  0  0  0  0  0  0  0  0  0  0  0
   19.4254    9.7180  -11.5819 O   0  0  0  0  0  0  0  0  0  0  0  0
   24.3106   13.0892  -15.7345 O   0  0  0  0  0  0  0  0  0  0  0  0
   21.0335   14.1476  -12.1804 N   0  0  0  0  0  0  0  0  0  0  0  0
   20.6846   10.2011   -8.2278 C   0  0  0  0  0  0  0  0  0  0  0  0
   20.8452   10.6929   -6.9218 C   0  0  0  0  0  0  0  0  0  0  0  0
   22.2789   13.9099   -7.7274 O   0  0  0  0  0  0  0  0  0  0  0  0
   21.4134   11.9654   -6.7152 C   0  0  0  0  0  0  0  0  0  0  0  0
   25.2351   10.3814  -15.3254 C   0  0  0  0  0  0  0  0  0  0  0  0
   23.6887    8.9046  -10.9146 C   0  0  0  0  0  0  0  0  0  0  0  0
   21.8014   12.7423   -7.8303 C   0  0  0  0  0  0  0  0  0  0  0  0
   23.6072   12.0551  -16.1781 C   0  0  0  0  0  0  0  0  0  0  0  0
   21.5140   13.2803  -15.9372 O   0  0  0  0  0  0  0  0  0  0  0  0
   20.4300   12.7656  -15.3089 C   0  0  0  0  0  0  0  0  0  0  0  0
   20.6126   11.8563  -11.4908 C   0  0  0  0  0  0  0  0  0  0  0  0
   22.0696    8.6045  -12.6601 C   0  0  0  0  0  0  0  0  0  0  0  0
   19.4238   12.5709  -15.9311 O   0  0  0  0  0  0  0  0  0  0  0  0
   21.5122   13.3587  -13.2925 C   0  0  0  0  0  0  0  0  0  0  0  0
   21.1854   11.0587   -9.2719 C   0  0  0  0  0  0  0  0  0  0  0  0
   19.3330   10.9989  -11.6865 S   0  0  0  0  0  3  0  0  0  0  0  0
   20.5307   12.4870  -13.9222 C   0  0  0  0  0  0  0  0  0  0  0  0
   24.3136   10.8254  -16.4943 C   0  0  0  0  0  0  0  0  0  0  0  0
  1 23  1  0
  1 31  2  0
  2 24  1  0
  2 25  1  0
  3 30  2  0
  4  9  1  0
  4 12  1  0
  4 13  2  0
  5 18  2  0
  6 32  2  0
  7 16  1  0
  7 27  1  0
  8 16  1  0
  9 21  1  0
 10 27  1  0
 10 31  1  0
 11 22  2  0
 11 28  1  0
 12 28  2  0
 13 22  1  0
 14 32  1  0
 15 24  1  0
 16 30  1  0
 17 18  1  0
 17 31  1  0
 18 20  1  0
 19 23  2  0
 20 23  1  0
 21 34  1  0
 24 34  1  0
 25 26  1  0
 26 29  2  0
 26 33  1  0
 27 32  1  0
 30 33  1  0
M  END
>  <ID>  (1) 
conformer_0

$$$$
