
     RDKit          3D

 28 31  0  0  0  0  0  0  0  0999 V2000
   23.6086    8.8042  -11.5211 C   0  0  0  0  0  0  0  0  0  0  0  0
   21.3932    9.3422  -12.6106 C   0  0  0  0  0  0  0  0  0  0  0  0
   22.0802    8.4212  -11.5494 C   0  0  0  0  0  0  0  0  0  0  0  0
   21.4807   12.5907   -8.7488 C   0  0  0  0  0  0  0  0  0  0  0  0
   21.5358   13.1504  -13.5503 C   0  0  0  0  0  0  0  0  0  0  0  0
   21.8734    8.8043  -13.9881 C   0  0  0  0  0  0  0  0  0  0  0  0
   20.8891   10.4509   -7.7660 O   0  0  0  0  0  0  0  0  0  0  0  0
   24.2870   10.7178  -15.5326 C   0  0  0  0  0  0  0  0  0  0  0  0
   20.5386   11.1716  -14.5147 C   0  0  0  0  0  0  0  0  0  0  0  0
   26.4291    8.4018  -16.7852 O   0  0  0  0  0  0  0  0  0  0  0  0
   21.3343   10.6431  -10.1004 C   0  0  0  0  0  0  0  0  0  0  0  0
   21.7530   13.3944   -9.8766 C   0  0  0  0  0  0  0  0  0  0  0  0
   24.1672    9.0852  -12.9034 C   0  0  0  0  0  0  0  0  0  0  0  0
   21.7130   12.7910  -11.1325 C   0  0  0  0  0  0  0  0  0  0  0  0
   21.2449   11.2183   -8.8587 C   0  0  0  0  0  0  0  0  0  0  0  0
   21.7567   13.5945  -12.2480 N   0  0  0  0  0  0  0  0  0  0  0  0
   24.6427    7.6413  -15.5341 C   0  0  0  0  0  0  0  0  0  0  0  0
   23.0821   11.5445  -14.7783 C   0  0  0  0  0  0  0  0  0  0  0  0
   21.8261   11.6205  -13.7548 C   0  0  0  0  0  0  0  0  0  0  0  0
   23.1923   12.9853  -15.5025 C   0  0  0  0  0  0  0  0  0  0  0  0
   21.6093   11.3894  -11.2190 C   0  0  0  0  0  0  0  0  0  0  0  0
   24.1500    9.1119  -15.4003 C   0  0  0  0  0  0  0  0  0  0  0  0
   21.4760   13.1885   -7.5344 O   0  0  0  0  0  0  0  0  0  0  0  0
   21.7916   10.8084  -12.4780 N   0  0  0  0  0  0  0  0  0  0  0  0
   26.0757    7.5745  -15.9211 C   0  0  0  0  0  0  0  0  0  0  0  0
   22.0818   14.6616   -9.8164 O   0  0  0  0  0  0  0  0  0  0  0  0
   23.3429    9.0313  -14.1518 C   0  0  0  0  0  0  0  0  0  0  0  0
   26.7685    6.6616  -15.4721 O   0  0  0  0  0  0  0  0  0  0  0  0
  1  3  1  0
  1 13  1  0
  2  3  1  0
  2  6  1  0
  2 24  1  0
  4 12  1  0
  4 15  2  0
  4 23  1  0
  5 16  1  0
  5 19  1  0
  6 27  1  0
  7 15  1  0
  8 18  1  0
  8 22  1  0
  9 19  1  0
 10 25  2  0
 11 15  1  0
 11 21  2  0
 12 14  2  0
 12 26  1  0
 13 27  2  0
 14 16  1  0
 14 21  1  0
 17 22  1  0
 17 25  1  0
 18 19  1  0
 18 20  1  0
 19 24  1  0
 21 24  1  0
 22 27  1  0
 25 28  1  0
M  END
>  <ID>  (1) 
conformer_0

$$$$
