
     RDKit          3D

 27 29  0  0  0  0  0  0  0  0999 V2000
   21.4519   12.0753  -11.1887 N   0  0  0  0  0  0  0  0  0  0  0  0
   23.4648   10.5435  -13.0508 C   0  0  0  0  0  0  0  0  0  0  0  0
   26.1322    8.6089  -14.7552 C   0  0  0  0  0  0  0  0  0  0  0  0
   21.1929   11.8082   -9.8600 C   0  0  0  0  0  0  0  0  0  0  0  0
   20.8175    9.6247  -10.6734 C   0  0  0  0  0  0  0  0  0  0  0  0
   21.0208   10.4742   -9.4773 C   0  0  0  0  0  0  0  0  0  0  0  0
   23.3362    9.2942  -10.6249 C   0  0  0  0  0  0  0  0  0  0  0  0
   22.5000    8.0954  -11.0522 O   0  0  0  0  0  0  0  0  0  0  0  0
   20.0938   15.0942   -8.8391 O   0  0  0  0  0  0  0  0  0  0  0  0
   21.0294   12.4526   -7.5518 C   0  0  0  0  0  0  0  0  0  0  0  0
   21.0591   12.8186   -8.9231 C   0  0  0  0  0  0  0  0  0  0  0  0
   24.1185   10.6900  -14.1541 C   0  0  0  0  0  0  0  0  0  0  0  0
   21.1761   14.4503  -10.8411 C   0  0  0  0  0  0  0  0  0  0  0  0
   25.8840   11.4784  -16.2630 O   0  0  0  0  0  0  0  0  0  0  0  0
   25.1141   10.2435  -16.2469 N   0  0  0  0  0  0  0  0  0  0  0  0
   21.0189   11.1266   -7.1607 C   0  0  0  0  0  0  0  0  0  0  0  0
   23.9599   10.3029  -15.4227 C   0  0  0  0  0  0  0  0  0  0  0  0
   22.3058    9.8885  -12.8179 C   0  0  0  0  0  0  0  0  0  0  0  0
   21.4112   13.3310  -11.7296 C   0  0  0  0  0  0  0  0  0  0  0  0
   21.8462   15.6278  -11.0650 O   0  0  0  0  0  0  0  0  0  0  0  0
   20.9184   14.1972   -9.4079 C   0  0  0  0  0  0  0  0  0  0  0  0
   21.0078   10.1484   -8.0998 C   0  0  0  0  0  0  0  0  0  0  0  0
   22.6927    9.9589  -15.9295 C   0  0  0  0  0  0  0  0  0  0  0  0
   21.3847    9.6260  -13.8463 C   0  0  0  0  0  0  0  0  0  0  0  0
   21.5601    9.7365  -15.1748 C   0  0  0  0  0  0  0  0  0  0  0  0
   25.9139    9.0430  -16.2117 C   0  0  0  0  0  0  0  0  0  0  0  0
   22.0569    9.3981  -11.4083 C   0  0  0  0  0  0  0  0  0  0  0  0
  1  4  1  0
  1 19  2  0
  2 12  2  0
  2 18  1  0
  3 26  1  0
  4  6  1  0
  4 11  2  0
  5  6  1  0
  5 27  1  0
  6 22  1  0
  7 27  1  0
  8 27  1  0
  9 21  1  0
 10 11  1  0
 10 16  1  0
 11 21  1  0
 12 17  1  0
 13 19  1  0
 13 20  1  0
 13 21  1  0
 14 15  1  0
 15 17  1  0
 15 26  1  0
 16 22  2  0
 17 23  2  0
 18 24  1  0
 18 27  1  0
 23 25  1  0
 24 25  2  0
M  END
>  <ID>  (1) 
conformer_0

$$$$
