
     RDKit          3D

 27 30  0  0  0  0  0  0  0  0999 V2000
   21.9985    8.3105  -13.8365 C   0  0  0  0  0  0  0  0  0  0  0  0
   21.3129   13.7786  -11.4380 C   0  0  0  0  0  0  0  0  0  0  0  0
   21.1081   12.7183   -8.9094 C   0  0  0  0  0  0  0  0  0  0  0  0
   21.8349   14.9230  -11.3139 O   0  0  0  0  0  0  0  0  0  0  0  0
   24.7404    8.2382  -13.1724 C   0  0  0  0  0  0  0  0  0  0  0  0
   22.9435    7.8132  -14.7593 C   0  0  0  0  0  0  0  0  0  0  0  0
   21.0514   11.8234   -6.8762 N   0  0  0  0  0  0  0  0  0  0  0  0
   21.8260   11.9745  -15.0142 C   0  0  0  0  0  0  0  0  0  0  0  0
   20.5518   11.6088   -8.1624 C   0  0  0  0  0  0  0  0  0  0  0  0
   24.2446    8.6997  -10.6454 Cl  0  0  0  0  0  0  0  0  0  0  0  0
   21.1289   12.7804  -10.3968 C   0  0  0  0  0  0  0  0  0  0  0  0
   20.8728   13.4374  -12.7286 N   0  0  0  0  0  0  0  0  0  0  0  0
   20.4684   10.4088  -11.8445 C   0  0  0  0  0  0  0  0  0  0  0  0
   25.3272    7.4551  -15.4395 C   0  0  0  0  0  0  0  0  0  0  0  0
   21.5352   13.0721  -13.9426 C   0  0  0  0  0  0  0  0  0  0  0  0
   21.9874   13.3042   -8.1234 N   0  0  0  0  0  0  0  0  0  0  0  0
   20.8402   11.4386  -10.9943 N   0  0  0  0  0  0  0  0  0  0  0  0
   22.4024    8.8201  -12.5896 C   0  0  0  0  0  0  0  0  0  0  0  0
   24.3198    7.8426  -14.4358 C   0  0  0  0  0  0  0  0  0  0  0  0
   22.0273   12.7797   -6.9137 C   0  0  0  0  0  0  0  0  0  0  0  0
   23.7787    8.6081  -12.2734 C   0  0  0  0  0  0  0  0  0  0  0  0
   19.3906   10.0746  -12.1752 O   0  0  0  0  0  0  0  0  0  0  0  0
   22.8064   12.9404  -15.7138 C   0  0  0  0  0  0  0  0  0  0  0  0
   22.4714   14.0521  -14.6413 C   0  0  0  0  0  0  0  0  0  0  0  0
   26.6517    7.7797  -15.0888 O   0  0  0  0  0  0  0  0  0  0  0  0
   21.9139   10.2823  -10.4075 C   0  0  0  0  0  0  0  0  0  0  0  0
   21.5553    9.4711  -11.6414 N   0  0  0  0  0  0  0  0  0  0  0  0
  1  6  2  0
  1 18  1  0
  2  4  2  0
  2 11  1  0
  2 12  1  0
  3  9  1  0
  3 11  1  0
  3 16  1  0
  5 19  2  0
  5 21  1  0
  6 19  1  0
  7  9  1  0
  7 20  1  0
  8 15  1  0
  8 23  1  0
 10 21  1  0
 11 17  1  0
 12 15  1  0
 13 17  1  0
 13 22  2  0
 13 27  1  0
 14 19  1  0
 14 25  1  0
 15 24  1  0
 16 20  1  0
 17 26  1  0
 18 21  2  0
 18 27  1  0
 23 24  1  0
 26 27  1  0
M  END
>  <ID>  (1) 
conformer_0

$$$$
