
     RDKit          3D

 31 33  0  0  0  0  0  0  0  0999 V2000
   21.4435   11.7910   -7.7626 N   0  0  0  0  0  0  0  0  0  0  0  0
   22.0961   13.7843   -8.6874 O   0  0  0  0  0  0  0  0  0  0  0  0
   22.0153   15.1889  -11.2897 O   0  0  0  0  0  0  0  0  0  0  0  0
   26.0686    8.8946  -16.5431 C   0  0  0  0  0  0  0  0  0  0  0  0
   24.6348   10.7792  -15.9567 C   0  0  0  0  0  0  0  0  0  0  0  0
   22.7992    8.2884  -11.2261 C   0  0  0  0  0  0  0  0  0  0  0  0
   21.9615   13.8221  -11.4819 C   0  0  0  0  0  0  0  0  0  0  0  0
   26.0885   10.3339  -15.9279 C   0  0  0  0  0  0  0  0  0  0  0  0
   20.4859    9.8043   -7.0585 O   0  0  0  0  0  0  0  0  0  0  0  0
   23.1340    7.5269  -12.4586 C   0  0  0  0  0  0  0  0  0  0  0  0
   22.3410   10.5072  -10.0495 C   0  0  0  0  0  0  0  0  0  0  0  0
   25.5945    8.0347  -15.3442 C   0  0  0  0  0  0  0  0  0  0  0  0
   20.6511   13.4515  -11.8729 C   0  0  0  0  0  0  0  0  0  0  0  0
   22.1399    7.7687  -14.6964 C   0  0  0  0  0  0  0  0  0  0  0  0
   21.3126   12.3765   -6.4851 C   0  0  0  0  0  0  0  0  0  0  0  0
   21.0226   11.5339  -14.1957 C   0  0  0  0  0  0  0  0  0  0  0  0
   21.9707   12.5405   -8.8387 C   0  0  0  0  0  0  0  0  0  0  0  0
   24.4474    8.6701  -14.6938 C   0  0  0  0  0  0  0  0  0  0  0  0
   21.3262   10.3640  -15.0866 C   0  0  0  0  0  0  0  0  0  0  0  0
   22.3796   11.9101  -10.0086 C   0  0  0  0  0  0  0  0  0  0  0  0
   22.0383   12.2091  -13.3736 C   0  0  0  0  0  0  0  0  0  0  0  0
   21.1922    8.9455  -14.5196 C   0  0  0  0  0  0  0  0  0  0  0  0
   20.0710   12.5460  -14.7982 C   0  0  0  0  0  0  0  0  0  0  0  0
   26.3285    7.1134  -15.0539 O   0  0  0  0  0  0  0  0  0  0  0  0
   23.1637    9.6988  -11.0613 C   0  0  0  0  0  0  0  0  0  0  0  0
   23.7995    9.6478  -15.6153 C   0  0  0  0  0  0  0  0  0  0  0  0
   21.6038    9.8309   -9.0899 C   0  0  0  0  0  0  0  0  0  0  0  0
   22.9020   12.8405  -11.0437 C   0  0  0  0  0  0  0  0  0  0  0  0
   21.1477   10.4510   -7.9318 C   0  0  0  0  0  0  0  0  0  0  0  0
   21.6329   13.6006  -12.9680 C   0  0  0  0  0  0  0  0  0  0  0  0
   23.4744    7.8946  -13.8559 C   0  0  0  0  0  0  0  0  0  0  0  0
  1 15  1  0
  1 17  1  0
  1 29  1  0
  2 17  2  0
  3  7  1  0
  4  8  1  0
  4 12  1  0
  5  8  1  0
  5 26  1  0
  6 10  1  0
  6 25  1  0
  7 13  1  0
  7 28  1  0
  9 29  2  0
 10 31  1  0
 11 20  1  0
 11 25  1  0
 11 27  2  0
 12 18  1  0
 12 24  2  0
 13 30  1  0
 14 22  1  0
 14 31  1  0
 16 19  1  0
 16 21  1  0
 16 23  1  0
 17 20  1  0
 18 26  1  0
 18 31  1  0
 19 22  1  0
 20 28  1  0
 21 30  1  0
 27 29  1  0
M  END
>  <ID>  (1) 
conformer_0

$$$$
