
     RDKit          3D

 30 35  0  0  0  0  0  0  0  0999 V2000
   21.4821   12.6782   -8.7816 C   0  0  0  0  0  0  0  0  0  0  0  0
   22.3803   14.7005   -9.8188 O   0  0  0  0  0  0  0  0  0  0  0  0
   22.5928   13.6529  -14.3947 C   0  0  0  0  0  0  0  0  0  0  0  0
   21.5497   13.0171   -7.4577 N   0  0  0  0  0  0  0  0  0  0  0  0
   22.8695   10.1563  -12.4023 C   0  0  0  0  0  0  0  0  0  0  0  0
   24.4083    9.3996  -14.1554 C   0  0  0  0  0  0  0  0  0  0  0  0
   21.3565   11.0250  -10.5703 N   0  0  0  0  0  0  0  0  0  0  0  0
   22.6326   12.4185  -15.2820 O   0  0  0  0  0  0  0  0  0  0  0  0
   20.5335   10.0301   -5.8414 F   0  0  0  0  0  0  0  0  0  0  0  0
   21.2448   11.3399   -9.1664 C   0  0  0  0  0  0  0  0  0  0  0  0
   26.7040    6.9081  -15.5564 O   0  0  0  0  0  0  0  0  0  0  0  0
   25.6321    8.6708  -14.5407 C   0  0  0  0  0  0  0  0  0  0  0  0
   21.3621   14.2899  -12.2217 N   0  0  0  0  0  0  0  0  0  0  0  0
   21.3179   12.0529  -12.8847 C   0  0  0  0  0  0  0  0  0  0  0  0
   19.1850   11.7923  -11.5134 C   0  0  0  0  0  0  0  0  0  0  0  0
   21.2784   12.1273   -6.4993 N   0  0  0  0  0  0  0  0  0  0  0  0
   21.6485   13.7324   -9.8474 C   0  0  0  0  0  0  0  0  0  0  0  0
   22.2611   10.0719  -11.0572 C   0  0  0  0  0  0  0  0  0  0  0  0
   22.9300   11.2540  -14.5372 C   0  0  0  0  0  0  0  0  0  0  0  0
   24.5300    7.2321  -16.0993 O   0  0  0  0  0  0  0  0  0  0  0  0
   21.3979   13.4270  -13.4540 C   0  0  0  0  0  0  0  0  0  0  0  0
   20.9467   10.4314   -8.1336 C   0  0  0  0  0  0  0  0  0  0  0  0
   23.8492    9.3070  -12.8483 C   0  0  0  0  0  0  0  0  0  0  0  0
   20.9085   10.8556   -6.8120 C   0  0  0  0  0  0  0  0  0  0  0  0
   22.5993    9.0232  -10.3644 O   0  0  0  0  0  0  0  0  0  0  0  0
   20.8678   13.5503  -11.0726 C   0  0  0  0  0  0  0  0  0  0  0  0
   25.6418    7.5616  -15.4736 C   0  0  0  0  0  0  0  0  0  0  0  0
   23.8414   10.3448  -15.0181 C   0  0  0  0  0  0  0  0  0  0  0  0
   22.3844   11.1460  -13.2691 C   0  0  0  0  0  0  0  0  0  0  0  0
   20.7759   12.0791  -11.4751 C   0  0  0  0  0  0  0  0  0  0  0  0
  1  4  1  0
  1 10  2  0
  1 17  1  0
  2 17  2  0
  3  8  1  0
  3 21  1  0
  4 16  2  0
  5 18  1  0
  5 23  2  0
  5 29  1  0
  6 12  1  0
  6 23  1  0
  6 28  1  0
  7 10  1  0
  7 18  1  0
  7 30  1  0
  8 19  1  0
  9 24  1  0
 10 22  1  0
 11 27  2  0
 12 27  1  0
 13 21  1  0
 13 26  1  0
 14 21  1  0
 14 29  1  0
 14 30  1  0
 15 30  1  0
 16 24  1  0
 17 26  1  0
 18 25  2  0
 19 28  2  0
 19 29  1  0
 20 27  1  0
 22 24  2  0
 26 30  1  0
M  END
>  <ID>  (1) 
conformer_0

$$$$
