
     RDKit          3D

 24 24  0  0  0  0  0  0  0  0999 V2000
   21.5472   13.3142  -11.2595 C   0  0  0  0  0  0  0  0  0  0  0  0
   21.3331   12.9539   -8.1265 O   0  0  0  0  0  0  0  0  0  0  0  0
   23.4938    8.9593  -11.8096 C   0  0  0  0  0  0  0  0  0  0  0  0
   19.9817   11.4227  -11.0920 C   0  0  0  0  0  0  0  0  0  0  0  0
   22.4588    8.9256  -10.6647 C   0  0  0  0  0  0  0  0  0  0  0  0
   20.8535   12.3820  -10.4501 N   0  0  0  0  0  0  0  0  0  0  0  0
   21.8058   14.4784  -13.3567 N   0  0  0  0  0  0  0  0  0  0  0  0
   21.5372   13.1851  -12.7404 C   0  0  0  0  0  0  0  0  0  0  0  0
   26.7386    7.4074  -15.3766 O   0  0  0  0  0  0  0  0  0  0  0  0
   22.9830    9.2644  -13.2314 C   0  0  0  0  0  0  0  0  0  0  0  0
   21.0316   10.6722   -8.7064 C   0  0  0  0  0  0  0  0  0  0  0  0
   18.9332   10.8857  -10.2635 C   0  0  0  0  0  0  0  0  0  0  0  0
   21.1238   12.1193   -9.0864 C   0  0  0  0  0  0  0  0  0  0  0  0
   19.5553   10.1275  -11.3141 C   0  0  0  0  0  0  0  0  0  0  0  0
   22.0298   14.3814  -10.6640 O   0  0  0  0  0  0  0  0  0  0  0  0
   20.5789   10.3868   -7.4992 O   0  0  0  0  0  0  0  0  0  0  0  0
   21.5209    9.6517   -9.6881 C   0  0  0  0  0  0  0  0  0  0  0  0
   25.5172    9.0392  -16.2805 O   0  0  0  0  0  0  0  0  0  0  0  0
   21.3136   12.2642  -13.7218 C   0  0  0  0  0  0  0  0  0  0  0  0
   25.2936    8.6106  -13.9430 C   0  0  0  0  0  0  0  0  0  0  0  0
   23.8581    8.7830  -14.3047 C   0  0  0  0  0  0  0  0  0  0  0  0
   21.8804    9.8961  -13.7147 C   0  0  0  0  0  0  0  0  0  0  0  0
   21.4426   11.0424  -14.1696 C   0  0  0  0  0  0  0  0  0  0  0  0
   25.9906    8.3577  -15.3182 C   0  0  0  0  0  0  0  0  0  0  0  0
  1  6  1  0
  1  8  1  0
  1 15  2  0
  2 13  2  0
  3  5  1  0
  3 10  1  0
  4  6  1  0
  4 14  1  0
  5 17  2  0
  6 13  1  0
  7  8  1  0
  8 19  1  0
  9 24  2  0
 10 21  1  0
 10 22  1  0
 11 13  1  0
 11 16  1  0
 11 17  2  0
 12 14  1  0
 18 24  1  0
 19 23  2  0
 20 21  1  0
 20 24  1  0
 22 23  1  0
M  END
>  <ID>  (1) 
conformer_0

$$$$
