
     RDKit          3D

 22 23  0  0  0  0  0  0  0  0999 V2000
   21.3331   12.5312   -7.8579 C   0  0  0  0  0  0  0  0  0  0  0  0
   22.2709    8.8837  -12.6357 C   0  0  0  0  0  0  0  0  0  0  0  0
   22.4457   11.2984  -13.0144 O   0  0  0  0  0  0  0  0  0  0  0  0
   20.2545   11.3273  -10.0875 C   0  0  0  0  0  0  0  0  0  0  0  0
   21.8987   13.0354  -11.4487 C   0  0  0  0  0  0  0  0  0  0  0  0
   22.3656   14.0541  -12.2661 N   0  0  0  0  0  0  0  0  0  0  0  0
   23.8432    9.7209  -14.2393 C   0  0  0  0  0  0  0  0  0  0  0  0
   23.4545   13.9292  -13.0986 O   0  0  0  0  0  0  0  0  0  0  0  0
   22.8344    9.9790  -13.2766 C   0  0  0  0  0  0  0  0  0  0  0  0
   24.0496    5.8910  -14.1662 C   0  0  0  0  0  0  0  0  0  0  0  0
   24.3166    8.4156  -14.3849 C   0  0  0  0  0  0  0  0  0  0  0  0
   23.6773    7.3382  -13.7927 C   0  0  0  0  0  0  0  0  0  0  0  0
   21.2118   11.5513   -6.9573 N   0  0  0  0  0  0  0  0  0  0  0  0
   20.6842   10.9629  -11.3287 C   0  0  0  0  0  0  0  0  0  0  0  0
   21.6210   13.2710  -10.1596 C   0  0  0  0  0  0  0  0  0  0  0  0
   21.6717   11.7268  -11.9739 C   0  0  0  0  0  0  0  0  0  0  0  0
   22.0017   13.5507   -7.5103 O   0  0  0  0  0  0  0  0  0  0  0  0
   20.9819   12.3266   -9.3220 C   0  0  0  0  0  0  0  0  0  0  0  0
   22.6414    7.5843  -12.8743 C   0  0  0  0  0  0  0  0  0  0  0  0
   25.8034    8.1639  -15.3213 Cl  0  0  0  0  0  0  0  0  0  0  0  0
   24.3583   10.9852  -15.2536 Cl  0  0  0  0  0  0  0  0  0  0  0  0
   19.0255   10.7803   -9.7588 F   0  0  0  0  0  0  0  0  0  0  0  0
  1 13  1  0
  1 17  2  0
  1 18  1  0
  2  9  2  0
  2 19  1  0
  3  9  1  0
  3 16  1  0
  4 14  2  0
  4 18  1  0
  4 22  1  0
  5  6  1  0
  5 15  2  0
  5 16  1  0
  6  8  1  0
  7  9  1  0
  7 11  2  0
  7 21  1  0
 10 12  1  0
 11 12  1  0
 11 20  1  0
 12 19  2  0
 14 16  1  0
 15 18  1  0
M  END
>  <ID>  (1) 
conformer_0

$$$$
