
     RDKit          3D

 23 24  0  0  0  0  0  0  0  0999 V2000
   22.6562   12.9337  -16.2569 C   0  0  0  0  0  0  0  0  0  0  0  0
   22.5009   14.6133  -14.3682 C   0  0  0  0  0  0  0  0  0  0  0  0
   25.8671    8.6370  -14.6963 O   0  0  0  0  0  0  0  0  0  0  0  0
   22.1729   14.7551  -12.0236 O   0  0  0  0  0  0  0  0  0  0  0  0
   23.5113    9.1563  -12.2221 C   0  0  0  0  0  0  0  0  0  0  0  0
   21.7358   10.4322  -10.8187 C   0  0  0  0  0  0  0  0  0  0  0  0
   22.7812   11.4540  -13.2938 C   0  0  0  0  0  0  0  0  0  0  0  0
   21.5117   12.6439   -6.5554 O   0  0  0  0  0  0  0  0  0  0  0  0
   23.3977   13.7037  -15.1950 C   0  0  0  0  0  0  0  0  0  0  0  0
   19.5754   11.6977  -10.8309 C   0  0  0  0  0  0  0  0  0  0  0  0
   21.1033   11.7832  -11.1949 C   0  0  0  0  0  0  0  0  0  0  0  0
   21.6324   12.4696  -13.6676 C   0  0  0  0  0  0  0  0  0  0  0  0
   20.7649   11.8558   -7.4170 C   0  0  0  0  0  0  0  0  0  0  0  0
   23.0048    9.4757  -10.9026 C   0  0  0  0  0  0  0  0  0  0  0  0
   21.4911   10.4357   -9.2650 C   0  0  0  0  0  0  0  0  0  0  0  0
   24.6136    8.6189  -12.7393 O   0  0  0  0  0  0  0  0  0  0  0  0
   24.8324    8.9555  -14.1114 C   0  0  0  0  0  0  0  0  0  0  0  0
   22.7768    9.8778  -13.3207 C   0  0  0  0  0  0  0  0  0  0  0  0
   21.6803   12.7518  -10.0880 C   0  0  0  0  0  0  0  0  0  0  0  0
   21.4382   11.9003   -8.7936 C   0  0  0  0  0  0  0  0  0  0  0  0
   18.7538   11.8374  -12.0432 C   0  0  0  0  0  0  0  0  0  0  0  0
   21.9292   13.8928  -13.1458 C   0  0  0  0  0  0  0  0  0  0  0  0
   23.5562    9.5382  -14.5795 C   0  0  0  0  0  0  0  0  0  0  0  0
  1  9  1  0
  2  9  1  0
  2 22  1  0
  3 17  2  0
  4 22  1  0
  5 14  2  3
  5 16  1  0
  5 18  1  0
  6 11  1  0
  6 14  1  0
  6 15  1  0
  7 12  1  0
  7 18  1  0
  8 13  1  0
 10 11  1  0
 10 21  1  0
 11 19  1  0
 12 22  1  0
 13 20  1  0
 15 20  1  0
 16 17  1  0
 17 23  1  0
 18 23  1  0
 19 20  1  0
M  END
>  <ID>  (1) 
conformer_0

$$$$
