
     RDKit          3D

 33 35  0  0  0  0  0  0  0  0999 V2000
   21.0164   12.4673   -8.1573 C   0  0  0  0  0  0  0  0  0  0  0  0
   21.2542    9.0890  -15.0182 F   0  0  0  0  0  0  0  0  0  0  0  0
   19.7858   10.5380   -8.5025 O   0  0  0  0  0  0  0  0  0  0  0  0
   20.3959   12.4938   -9.5360 C   0  0  0  0  0  0  0  0  0  0  0  0
   22.2369    8.2991  -15.7587 F   0  0  0  0  0  0  0  0  0  0  0  0
   23.1452   13.4276  -13.0786 O   0  0  0  0  0  0  0  0  0  0  0  0
   24.0595    9.4258  -14.8697 C   0  0  0  0  0  0  0  0  0  0  0  0
   22.6030    8.8912  -14.6161 C   0  0  0  0  0  0  0  0  0  0  0  0
   22.4557    8.7558  -10.2853 C   0  0  0  0  0  0  0  0  0  0  0  0
   26.3161    8.8074  -14.4332 O   0  0  0  0  0  0  0  0  0  0  0  0
   21.9012   12.2070   -5.6517 O   0  0  0  0  0  0  0  0  0  0  0  0
   20.9059   13.3406  -10.7044 C   0  0  0  0  0  0  0  0  0  0  0  0
   24.8799    7.1507  -14.7994 O   0  0  0  0  0  0  0  0  0  0  0  0
   22.7096   11.4111  -13.9915 N   0  0  0  0  0  0  0  0  0  0  0  0
   21.3121   11.1449   -6.0412 C   0  0  0  0  0  0  0  0  0  0  0  0
   19.5537   11.3072   -9.6490 C   0  0  0  0  0  0  0  0  0  0  0  0
   19.2289   10.9842  -11.1094 C   0  0  0  0  0  0  0  0  0  0  0  0
   24.6765   11.6614  -15.3254 O   0  0  0  0  0  0  0  0  0  0  0  0
   21.8378   14.4758  -10.5229 C   0  0  0  0  0  0  0  0  0  0  0  0
   22.2576   12.4850  -13.1087 C   0  0  0  0  0  0  0  0  0  0  0  0
   20.8383   10.3311   -5.1740 O   0  0  0  0  0  0  0  0  0  0  0  0
   21.6425   15.5112  -11.1906 O   0  0  0  0  0  0  0  0  0  0  0  0
   22.5975    8.8388  -13.0988 C   0  0  0  0  0  0  0  0  0  0  0  0
   25.1593    8.3569  -14.6282 C   0  0  0  0  0  0  0  0  0  0  0  0
   22.8557   14.2073   -9.7884 O   0  0  0  0  0  0  0  0  0  0  0  0
   21.3985    8.8403  -12.4505 C   0  0  0  0  0  0  0  0  0  0  0  0
   19.7709   11.8902  -12.2856 C   0  0  0  0  0  0  0  0  0  0  0  0
   21.0864   12.7317  -12.1482 C   0  0  0  0  0  0  0  0  0  0  0  0
   20.5718   11.1904   -7.4158 C   0  0  0  0  0  0  0  0  0  0  0  0
   23.9448   10.9116  -14.5909 C   0  0  0  0  0  0  0  0  0  0  0  0
   23.6935    8.6729  -10.9284 C   0  0  0  0  0  0  0  0  0  0  0  0
   21.3189    8.8054  -11.0626 C   0  0  0  0  0  0  0  0  0  0  0  0
   23.7447    8.7309  -12.3294 C   0  0  0  0  0  0  0  0  0  0  0  0
  1  4  1  0
  1 29  1  0
  2  8  1  0
  3 16  1  0
  3 29  1  0
  4 12  1  0
  4 16  1  0
  5  8  1  0
  6 20  2  0
  7  8  1  0
  7 24  1  0
  7 30  1  0
  8 23  1  0
  9 31  2  0
  9 32  1  0
 10 24  2  0
 11 15  2  0
 12 19  1  0
 12 28  1  0
 13 24  1  0
 14 20  1  0
 14 30  1  0
 15 21  1  0
 15 29  1  0
 16 17  1  0
 17 27  1  0
 18 30  2  0
 19 22  2  0
 19 25  1  0
 20 28  1  0
 23 26  1  0
 23 33  2  0
 26 32  2  0
 27 28  1  0
 31 33  1  0
M  END
>  <ID>  (1) 
conformer_0

$$$$
