
     RDKit          3D

 32 35  0  0  0  0  0  0  0  0999 V2000
   21.8208    6.8368   -5.9779 C   0  0  0  0  0  0  0  0  0  0  0  0
   21.3372   13.3295   -8.5942 C   0  0  0  0  0  0  0  0  0  0  0  0
   24.1937    9.5248  -12.9002 C   0  0  0  0  0  0  0  0  0  0  0  0
   24.9090    8.8268  -13.8732 C   0  0  0  0  0  0  0  0  0  0  0  0
   21.1994    6.8597   -4.9887 C   0  0  0  0  0  0  0  0  0  0  0  0
   22.4731    9.5319  -11.0246 C   0  0  0  0  0  0  0  0  0  0  0  0
   22.1162   14.0285  -13.3947 C   0  0  0  0  0  0  0  0  0  0  0  0
   21.4189   13.7905  -10.9948 C   0  0  0  0  0  0  0  0  0  0  0  0
   20.8426   11.1547   -7.7824 C   0  0  0  0  0  0  0  0  0  0  0  0
   22.0685   10.9175  -11.1346 C   0  0  0  0  0  0  0  0  0  0  0  0
   21.2231   10.6953   -6.5065 C   0  0  0  0  0  0  0  0  0  0  0  0
   25.9960    9.3525  -14.4784 O   0  0  0  0  0  0  0  0  0  0  0  0
   22.2945   11.8673  -12.2650 C   0  0  0  0  0  0  0  0  0  0  0  0
   19.6010   11.0613  -10.8714 C   0  0  0  0  0  0  0  0  0  0  0  0
   20.9727   11.3651  -10.2042 C   0  0  0  0  0  0  0  0  0  0  0  0
   25.1870    6.7758  -15.1002 O   0  0  0  0  0  0  0  0  0  0  0  0
   20.9104    9.6439   -5.9110 C   0  0  0  0  0  0  0  0  0  0  0  0
   20.8495   12.5057   -7.6211 N   0  0  0  0  0  0  0  0  0  0  0  0
   20.1702   12.7787  -12.9955 C   0  0  0  0  0  0  0  0  0  0  0  0
   23.3963    6.9511  -13.5745 C   0  0  0  0  0  0  0  0  0  0  0  0
   20.4833    7.8612   -4.4359 C   0  0  0  0  0  0  0  0  0  0  0  0
   21.0849   10.5402   -8.9811 C   0  0  0  0  0  0  0  0  0  0  0  0
   24.5012    7.5214  -14.1844 C   0  0  0  0  0  0  0  0  0  0  0  0
   21.9086   13.2537  -14.6881 C   0  0  0  0  0  0  0  0  0  0  0  0
   20.5766   12.5170  -14.4846 S   0  0  0  0  0  0  0  0  0  0  0  0
   21.8616   15.0668  -11.0371 O   0  0  0  0  0  0  0  0  0  0  0  0
   21.4745   13.1119  -12.3545 C   0  0  0  0  0  0  0  0  0  0  0  0
   20.3956    9.0992   -4.9076 C   0  0  0  0  0  0  0  0  0  0  0  0
   21.8245   14.4264   -8.3803 O   0  0  0  0  0  0  0  0  0  0  0  0
   23.1207    8.9319  -12.2108 C   0  0  0  0  0  0  0  0  0  0  0  0
   21.1315   12.8347   -9.9206 C   0  0  0  0  0  0  0  0  0  0  0  0
   22.6976    7.6524  -12.5819 C   0  0  0  0  0  0  0  0  0  0  0  0
  1  5  2  0
  2 18  1  0
  2 29  2  0
  2 31  1  0
  3  4  2  0
  3 30  1  0
  4 12  1  0
  4 23  1  0
  5 21  1  0
  6 10  1  0
  6 30  1  0
  7 24  1  0
  7 27  1  0
  8 26  1  0
  8 27  1  0
  8 31  2  0
  9 11  1  0
  9 18  1  0
  9 22  1  0
 10 13  2  0
 10 15  1  0
 11 17  1  0
 13 27  1  0
 14 15  1  0
 15 22  1  0
 15 31  1  0
 16 23  1  0
 17 28  2  3
 19 25  1  0
 19 27  1  0
 20 23  2  0
 20 32  1  0
 21 28  1  0
 24 25  1  0
 30 32  2  0
M  END
>  <ID>  (1) 
conformer_0

$$$$
