
     RDKit          3D

 28 31  0  0  0  0  0  0  0  0999 V2000
   20.9796   10.1267   -5.7122 C   0  0  0  0  0  0  0  0  0  0  0  0
   22.9937   14.1294  -12.9471 O   0  0  0  0  0  0  0  0  0  0  0  0
   20.2999   10.1991  -10.1910 O   0  0  0  0  0  0  0  0  0  0  0  0
   21.6968   10.1255  -14.9803 C   0  0  0  0  0  0  0  0  0  0  0  0
   23.8853    9.9388  -13.9060 C   0  0  0  0  0  0  0  0  0  0  0  0
   25.1321    6.6041  -15.0655 C   0  0  0  0  0  0  0  0  0  0  0  0
   24.1676    5.7594  -14.5708 C   0  0  0  0  0  0  0  0  0  0  0  0
   25.0150    7.9794  -14.8738 C   0  0  0  0  0  0  0  0  0  0  0  0
   21.5976   11.4844   -5.7242 C   0  0  0  0  0  0  0  0  0  0  0  0
   21.8106   13.1204   -7.6109 N   0  0  0  0  0  0  0  0  0  0  0  0
   21.5457   11.5791  -12.0833 C   0  0  0  0  0  0  0  0  0  0  0  0
   20.4887   10.6405  -12.5954 C   0  0  0  0  0  0  0  0  0  0  0  0
   21.9673   14.0163  -12.0070 C   0  0  0  0  0  0  0  0  0  0  0  0
   21.7668   15.2441  -11.3952 O   0  0  0  0  0  0  0  0  0  0  0  0
   21.1543   12.8165  -11.3137 C   0  0  0  0  0  0  0  0  0  0  0  0
   20.7884   11.2005   -9.3461 C   0  0  0  0  0  0  0  0  0  0  0  0
   21.4269   11.8946   -7.1262 C   0  0  0  0  0  0  0  0  0  0  0  0
   22.6226   10.5158  -13.9236 N   0  0  0  0  0  0  0  0  0  0  0  0
   22.5884   11.7260  -13.1219 C   0  0  0  0  0  0  0  0  0  0  0  0
   20.8957   10.9164   -7.9423 C   0  0  0  0  0  0  0  0  0  0  0  0
   23.9253    8.4755  -14.1573 C   0  0  0  0  0  0  0  0  0  0  0  0
   22.9548    7.6191  -13.6482 C   0  0  0  0  0  0  0  0  0  0  0  0
   23.0862    6.2785  -13.8382 C   0  0  0  0  0  0  0  0  0  0  0  0
   19.7434   13.0744  -11.5310 O   0  0  0  0  0  0  0  0  0  0  0  0
   20.6093    9.7656   -7.0959 C   0  0  0  0  0  0  0  0  0  0  0  0
   21.7250   13.3046   -8.9150 C   0  0  0  0  0  0  0  0  0  0  0  0
   19.7627   10.0070  -11.4579 C   0  0  0  0  0  0  0  0  0  0  0  0
   21.2178   12.4308   -9.7985 N   0  0  0  0  0  0  0  0  0  0  0  0
  1  9  1  0
  1 25  1  0
  2 13  2  0
  3 16  1  0
  3 27  1  0
  4 18  1  0
  5 18  1  0
  5 21  1  0
  6  7  2  0
  6  8  1  0
  7 23  1  0
  8 21  2  0
  9 17  1  0
 10 17  1  0
 10 26  2  0
 11 12  1  0
 11 15  1  0
 11 19  1  0
 12 27  1  0
 13 14  1  0
 13 15  1  0
 15 24  1  0
 15 28  1  0
 16 20  1  0
 16 28  1  0
 17 20  2  0
 18 19  1  0
 20 25  1  0
 21 22  1  0
 22 23  2  0
 26 28  1  0
M  END
>  <ID>  (1) 
conformer_0

$$$$
