
     RDKit          3D

 24 26  0  0  0  0  0  0  0  0999 V2000
   21.0818   12.5401   -8.5351 C   0  0  0  0  0  0  0  0  0  0  0  0
   19.8858   10.8518  -11.2706 C   0  0  0  0  0  0  0  0  0  0  0  0
   22.0634   12.0350   -7.6296 N   0  0  0  0  0  0  0  0  0  0  0  0
   21.9839   14.8546  -12.1611 O   0  0  0  0  0  0  0  0  0  0  0  0
   25.4250    6.1999  -15.3055 C   0  0  0  0  0  0  0  0  0  0  0  0
   21.7447    9.1959  -13.4247 C   0  0  0  0  0  0  0  0  0  0  0  0
   24.7720    9.8460  -15.5190 C   0  0  0  0  0  0  0  0  0  0  0  0
   21.4749   12.7276  -11.2167 C   0  0  0  0  0  0  0  0  0  0  0  0
   22.0567   14.7247   -9.9331 O   0  0  0  0  0  0  0  0  0  0  0  0
   20.8728    9.9745   -8.9721 O   0  0  0  0  0  0  0  0  0  0  0  0
   21.3282   12.0850   -9.8780 C   0  0  0  0  0  0  0  0  0  0  0  0
   23.5700    9.9720  -14.8539 C   0  0  0  0  0  0  0  0  0  0  0  0
   21.8361   14.2086  -11.0500 C   0  0  0  0  0  0  0  0  0  0  0  0
   24.7384    7.4675  -15.1131 C   0  0  0  0  0  0  0  0  0  0  0  0
   20.9340   10.6740  -10.1817 C   0  0  0  0  0  0  0  0  0  0  0  0
   26.8331    6.4612  -15.5160 O   0  0  0  0  0  0  0  0  0  0  0  0
   25.3700    8.6053  -15.6291 C   0  0  0  0  0  0  0  0  0  0  0  0
   20.1551   12.2650  -11.9173 C   0  0  0  0  0  0  0  0  0  0  0  0
   22.7051    8.9437  -10.7535 C   0  0  0  0  0  0  0  0  0  0  0  0
   22.5456   11.9446  -12.0499 C   0  0  0  0  0  0  0  0  0  0  0  0
   21.9794   10.5037  -12.4995 C   0  0  0  0  0  0  0  0  0  0  0  0
   23.4931    7.5760  -14.4475 C   0  0  0  0  0  0  0  0  0  0  0  0
   21.6310    9.9316  -11.1622 C   0  0  0  0  0  0  0  0  0  0  0  0
   22.9404    8.8907  -14.2666 C   0  0  0  0  0  0  0  0  0  0  0  0
  1  3  1  0
  1 11  1  0
  2 15  1  0
  2 18  1  0
  4 13  2  0
  5 14  1  0
  5 16  1  0
  6 21  1  0
  6 24  1  0
  7 12  2  0
  7 17  1  0
  8 11  1  0
  8 13  1  0
  8 18  1  0
  8 20  1  0
  9 13  1  0
 10 15  1  0
 11 15  1  0
 12 24  1  0
 14 17  2  0
 14 22  1  0
 15 23  1  0
 19 23  1  0
 20 21  1  0
 21 23  1  0
 22 24  2  0
M  END
>  <ID>  (1) 
conformer_0

$$$$
