
     RDKit          3D

 32 36  0  0  0  0  0  0  0  0999 V2000
   25.8392    8.6985  -14.7528 C   0  0  0  0  0  0  0  0  0  0  0  0
   21.7824    8.6406  -10.2456 C   0  0  0  0  0  0  0  0  0  0  0  0
   23.5830   10.2535  -11.2983 N   0  0  0  0  0  0  0  0  0  0  0  0
   21.8971   15.5279  -10.6905 O   0  0  0  0  0  0  0  0  0  0  0  0
   20.9103   12.5926   -9.9367 N   0  0  0  0  0  0  0  0  0  0  0  0
   21.0635   13.1568  -13.3074 C   0  0  0  0  0  0  0  0  0  0  0  0
   21.9832    9.8629   -9.5692 C   0  0  0  0  0  0  0  0  0  0  0  0
   21.0943   10.8016   -5.5362 C   0  0  0  0  0  0  0  0  0  0  0  0
   21.8062   10.9000  -16.2123 C   0  0  0  0  0  0  0  0  0  0  0  0
   21.9631   14.1548  -12.6617 C   0  0  0  0  0  0  0  0  0  0  0  0
   20.9020   11.9738  -18.0502 C   0  0  0  0  0  0  0  0  0  0  0  0
   21.4363   12.7896   -8.6746 C   0  0  0  0  0  0  0  0  0  0  0  0
   21.3150   10.7983  -17.4827 O   0  0  0  0  0  0  0  0  0  0  0  0
   21.8908   13.8361   -8.3359 O   0  0  0  0  0  0  0  0  0  0  0  0
   22.9412   10.6360  -10.2274 C   0  0  0  0  0  0  0  0  0  0  0  0
   21.7268   12.1119  -14.1458 N   0  0  0  0  0  0  0  0  0  0  0  0
   25.2061    9.0587  -13.4944 O   0  0  0  0  0  0  0  0  0  0  0  0
   22.6745    9.9423  -15.5902 C   0  0  0  0  0  0  0  0  0  0  0  0
   22.4620    8.2826  -11.4519 C   0  0  0  0  0  0  0  0  0  0  0  0
   21.4034   11.9731  -15.4774 N   0  0  0  0  0  0  0  0  0  0  0  0
   22.6439   11.2643  -13.6432 C   0  0  0  0  0  0  0  0  0  0  0  0
   21.4311   11.6221   -7.7715 C   0  0  0  0  0  0  0  0  0  0  0  0
   21.0370    9.2965   -7.3368 C   0  0  0  0  0  0  0  0  0  0  0  0
   21.4390   10.2802   -8.2492 C   0  0  0  0  0  0  0  0  0  0  0  0
   21.2408   14.5862  -11.4180 C   0  0  0  0  0  0  0  0  0  0  0  0
   20.2911   12.6131  -12.1821 O   0  0  0  0  0  0  0  0  0  0  0  0
   23.0563   10.1337  -14.2618 C   0  0  0  0  0  0  0  0  0  0  0  0
   23.7817    9.0723  -13.4597 C   0  0  0  0  0  0  0  0  0  0  0  0
   23.3004    9.1993  -12.0797 C   0  0  0  0  0  0  0  0  0  0  0  0
   20.4218   13.3990  -11.0047 C   0  0  0  0  0  0  0  0  0  0  0  0
   21.3490   11.8364   -6.3947 C   0  0  0  0  0  0  0  0  0  0  0  0
   20.8333    9.5681   -6.0171 N   0  0  0  0  0  0  0  0  0  0  0  0
  1 17  1  0
  2  7  2  0
  2 19  1  0
  3 15  2  0
  3 29  1  0
  4 25  1  0
  5 12  1  0
  5 30  1  0
  6 10  1  0
  6 16  1  0
  6 26  1  0
  7 15  1  0
  7 24  1  0
  8 31  2  0
  8 32  1  0
  9 13  1  0
  9 18  1  0
  9 20  2  0
 10 25  1  0
 11 13  1  0
 12 14  2  0
 12 22  1  0
 16 20  1  0
 16 21  1  0
 17 28  1  0
 18 27  1  0
 19 29  2  0
 21 27  2  0
 22 24  2  0
 22 31  1  0
 23 24  1  0
 23 32  2  0
 25 30  1  0
 26 30  1  0
 27 28  1  0
 28 29  1  0
M  END
>  <ID>  (1) 
conformer_0

$$$$
