
     RDKit          3D

 31 35  0  0  0  0  0  0  0  0999 V2000
   21.9007   10.0986  -10.5637 C   0  0  0  0  0  0  0  0  0  0  0  0
   21.5678   10.6390   -9.2172 C   0  0  0  0  0  0  0  0  0  0  0  0
   22.1026    8.7713  -11.2358 C   0  0  0  0  0  0  0  0  0  0  0  0
   21.0787   11.2962  -16.5846 C   0  0  0  0  0  0  0  0  0  0  0  0
   21.1032   13.9891  -12.6056 N   0  0  0  0  0  0  0  0  0  0  0  0
   22.8126    8.8119  -13.9044 C   0  0  0  0  0  0  0  0  0  0  0  0
   21.2904   12.3046   -6.9632 C   0  0  0  0  0  0  0  0  0  0  0  0
   25.2114    8.8899  -14.6877 C   0  0  0  0  0  0  0  0  0  0  0  0
   22.9105   12.2359  -15.2854 C   0  0  0  0  0  0  0  0  0  0  0  0
   21.2211   10.2450   -5.7671 O   0  0  0  0  0  0  0  0  0  0  0  0
   21.8396   14.1291   -8.4987 O   0  0  0  0  0  0  0  0  0  0  0  0
   23.6196   10.9699  -15.0427 C   0  0  0  0  0  0  0  0  0  0  0  0
   21.8123   12.4436  -14.2682 C   0  0  0  0  0  0  0  0  0  0  0  0
   19.2613   13.6430  -11.1323 C   0  0  0  0  0  0  0  0  0  0  0  0
   21.2272   12.0563   -9.4307 C   0  0  0  0  0  0  0  0  0  0  0  0
   20.9703   10.9065   -6.9171 C   0  0  0  0  0  0  0  0  0  0  0  0
   21.6357   10.0078  -16.0997 C   0  0  0  0  0  0  0  0  0  0  0  0
   21.5486   12.4313  -10.8301 C   0  0  0  0  0  0  0  0  0  0  0  0
   22.1995   13.3739  -13.1942 C   0  0  0  0  0  0  0  0  0  0  0  0
   23.6881    8.6672  -11.7072 C   0  0  0  0  0  0  0  0  0  0  0  0
   22.1770   12.3398  -16.6097 C   0  0  0  0  0  0  0  0  0  0  0  0
   26.5488    8.8521  -14.6334 O   0  0  0  0  0  0  0  0  0  0  0  0
   21.9999   11.2361  -11.4780 O   0  0  0  0  0  0  0  0  0  0  0  0
   20.7120   13.5385  -11.3398 C   0  0  0  0  0  0  0  0  0  0  0  0
   20.9577   10.1956   -8.0608 O   0  0  0  0  0  0  0  0  0  0  0  0
   24.9449   10.2584  -15.4942 C   0  0  0  0  0  0  0  0  0  0  0  0
   24.3287    8.9586  -13.2715 C   0  0  0  0  0  0  0  0  0  0  0  0
   23.3507   13.6505  -12.8526 O   0  0  0  0  0  0  0  0  0  0  0  0
   24.8490    7.6798  -15.3597 O   0  0  0  0  0  0  0  0  0  0  0  0
   22.5917    9.8733  -14.9850 C   0  0  0  0  0  0  0  0  0  0  0  0
   21.3818   12.9133   -8.2973 C   0  0  0  0  0  0  0  0  0  0  0  0
  1  2  1  0
  1  3  1  0
  1 23  1  0
  2 15  1  0
  2 25  1  0
  3 20  1  0
  4 17  1  0
  4 21  1  0
  5 19  1  0
  5 24  1  0
  6 27  1  0
  6 30  1  0
  7 16  1  0
  7 31  2  0
  8 22  1  0
  8 26  1  0
  8 27  1  0
  8 29  1  0
  9 12  1  0
  9 13  1  0
  9 21  1  0
 10 16  2  0
 11 31  1  0
 12 26  1  0
 12 30  1  0
 13 19  1  0
 14 24  1  0
 15 18  1  0
 15 31  1  0
 16 25  1  0
 17 30  1  0
 18 23  1  0
 18 24  1  0
 19 28  2  0
 20 27  1  0
M  END
>  <ID>  (1) 
conformer_0

$$$$
