
     RDKit          3D

 27 28  0  0  0  0  0  0  0  0999 V2000
   22.1726   12.7524   -6.9040 C   0  0  0  0  0  0  0  0  0  0  0  0
   20.8317   10.7829   -7.1322 C   0  0  0  0  0  0  0  0  0  0  0  0
   21.2979   12.5189  -10.3387 N   0  0  0  0  0  0  0  0  0  0  0  0
   22.4342   13.5976  -14.7623 S   0  0  0  0  0  4  0  0  0  0  0  0
   24.1061    9.7950  -14.0240 C   0  0  0  0  0  0  0  0  0  0  0  0
   21.8245   14.7832  -15.4549 O   0  0  0  0  0  0  0  0  0  0  0  0
   20.6926   10.9948   -8.4931 C   0  0  0  0  0  0  0  0  0  0  0  0
   21.3634   13.1400  -11.4664 N   0  0  0  0  0  0  0  0  0  0  0  0
   21.3434   12.1296   -9.0674 C   0  0  0  0  0  0  0  0  0  0  0  0
   21.0172   12.7880  -14.1139 C   0  0  0  0  0  0  0  0  0  0  0  0
   20.5431   11.7739  -15.0041 O   0  0  0  0  0  0  0  0  0  0  0  0
   24.3515    7.5181  -13.9955 N   0  0  0  0  0  0  0  0  0  0  0  0
   21.8416    9.0802  -11.7325 C   0  0  0  0  0  0  0  0  0  0  0  0
   25.2987    8.0956  -14.7449 N   0  0  0  0  0  0  0  0  0  0  0  0
   20.6685    9.9136  -12.0176 C   0  0  0  0  0  0  0  0  0  0  0  0
   19.1412    9.0605  -11.8373 Cl  0  0  0  0  0  0  0  0  0  0  0  0
   23.6557    8.5608  -13.5294 C   0  0  0  0  0  0  0  0  0  0  0  0
   21.5178   11.6967   -6.3238 N   0  0  0  0  0  0  0  0  0  0  0  0
   22.0956   12.9515   -8.2593 C   0  0  0  0  0  0  0  0  0  0  0  0
   22.5745    8.9819  -10.0183 Cl  0  0  0  0  0  0  0  0  0  0  0  0
   23.3991   14.0559  -13.7652 O   0  0  0  0  0  0  0  0  0  0  0  0
   20.6089   11.1497  -12.4092 N   0  0  0  0  0  0  0  0  0  0  0  0
   21.0068   12.3901  -12.6662 C   0  0  0  0  0  0  0  0  0  0  0  0
   25.1379    9.4894  -14.8638 C   0  0  0  0  0  0  0  0  0  0  0  0
   22.6207    8.4040  -12.6046 C   0  0  0  0  0  0  0  0  0  0  0  0
   26.3498    7.3726  -15.4159 C   0  0  0  0  0  0  0  0  0  0  0  0
   23.0885   12.6129  -15.7432 O   0  0  0  0  0  0  0  0  0  0  0  0
  1 18  2  0
  1 19  1  0
  2  7  2  0
  2 18  1  0
  3  8  1  0
  3  9  1  0
  4  6  1  0
  4 10  1  0
  4 21  1  0
  4 27  1  0
  5 17  1  0
  5 24  1  0
  7  9  1  0
  8 23  2  3
  9 19  2  0
 10 11  1  0
 10 23  1  0
 12 14  1  0
 12 17  1  0
 13 15  1  0
 13 20  1  0
 13 25  1  0
 14 24  1  0
 14 26  1  0
 15 16  1  0
 15 22  1  0
 17 25  2  3
 22 23  1  0
M  END
>  <ID>  (1) 
conformer_0

$$$$
