
     RDKit          3D

 25 27  0  0  0  0  0  0  0  0999 V2000
   21.9828   12.7083  -12.9144 S   0  0  0  0  0  4  0  0  0  0  0  0
   21.2389   13.7176  -13.6291 O   0  0  0  0  0  1  0  0  0  0  0  0
   21.7672   12.2830  -10.0614 C   0  0  0  0  0  0  0  0  0  0  0  0
   21.9587   11.2945  -13.7939 C   0  0  0  0  0  0  0  0  0  0  0  0
   24.8305    8.4090  -14.3687 C   0  0  0  0  0  0  0  0  0  0  0  0
   21.8641   13.1257   -7.7906 O   0  0  0  0  0  0  0  0  0  0  0  0
   22.7843    9.5135  -14.9168 C   0  0  0  0  0  0  0  0  0  0  0  0
   19.9877   10.6173  -10.6239 C   0  0  0  0  0  0  0  0  0  0  0  0
   22.8710   10.2525  -13.7232 C   0  0  0  0  0  0  0  0  0  0  0  0
   21.6323   10.0074  -15.6301 C   0  0  0  0  0  0  0  0  0  0  0  0
   22.2616    9.6024   -9.8436 S   0  0  0  0  0  0  0  0  0  0  0  0
   21.1207   10.9896   -9.5577 C   0  0  0  0  0  0  0  0  0  0  0  0
   25.8349    7.6666  -14.7237 O   0  0  0  0  0  0  0  0  0  0  0  0
   21.9606   13.3590   -9.1123 C   0  0  0  0  0  0  0  0  0  0  0  0
   22.2745   14.4862   -9.6262 O   0  0  0  0  0  0  0  0  0  0  0  0
   21.1243   11.1066  -14.8821 C   0  0  0  0  0  0  0  0  0  0  0  0
   24.8144    8.9584  -13.0587 C   0  0  0  0  0  0  0  0  0  0  0  0
   21.2793   11.6945   -6.0256 O   0  0  0  0  0  0  0  0  0  0  0  0
   21.3072   12.0004   -7.2864 C   0  0  0  0  0  0  0  0  0  0  0  0
   19.8848   12.3846  -11.5324 C   0  0  0  0  0  0  0  0  0  0  0  0
   23.3232   13.1132  -12.6917 O   0  0  0  0  0  1  0  0  0  0  0  0
   23.8152    9.8492  -12.7626 C   0  0  0  0  0  0  0  0  0  0  0  0
   23.7876    8.6427  -15.2595 C   0  0  0  0  0  0  0  0  0  0  0  0
   20.8282   11.0541   -8.1445 N   0  0  0  0  0  0  0  0  0  0  0  0
   21.3591   12.5297  -11.4573 N   0  0  0  0  0  0  0  0  0  0  0  0
  1  2  1  0
  1  4  1  0
  1 21  1  0
  1 25  1  0
  3 12  1  0
  3 14  1  0
  3 25  1  0
  4  9  1  0
  4 16  1  0
  5 13  1  0
  5 17  1  0
  5 23  2  0
  6 14  1  0
  6 19  1  0
  7  9  1  0
  7 10  1  0
  7 23  1  0
  8 12  1  0
  9 22  1  0
 10 16  1  0
 11 12  1  0
 12 24  1  0
 14 15  2  0
 17 22  2  0
 18 19  2  0
 19 24  1  0
 20 25  1  0
M  END
>  <ID>  (1) 
conformer_0

$$$$
