
     RDKit          3D

 21 25  0  0  0  0  0  0  0  0999 V2000
   70.1767   52.2523   42.2936 C   0  0  0  0  0  0  0  0  0  0  0  0
   72.9559   54.1939   43.8991 C   0  0  0  0  0  0  0  0  0  0  0  0
   71.3334   52.0516   41.3331 C   0  0  0  0  0  0  0  0  0  0  0  0
   73.7306   54.8995   41.7387 C   0  0  0  0  0  0  0  0  0  0  0  0
   74.4117   56.9404   39.9682 C   0  0  0  0  0  0  0  0  0  0  0  0
   73.4278   53.6289   41.2321 C   0  0  0  0  0  0  0  0  0  0  0  0
   73.5766   55.1647   43.1306 C   0  0  0  0  0  0  0  0  0  0  0  0
   70.8010   52.6791   43.5988 C   0  0  0  0  0  0  0  0  0  0  0  0
   69.2582   51.1508   42.4835 C   0  0  0  0  0  0  0  0  0  0  0  0
   74.2455   56.0053   41.1037 N   0  0  0  0  0  0  0  0  0  0  0  0
   72.5105   52.7594   41.8938 C   0  0  0  0  0  0  0  0  0  0  0  0
   73.8021   56.5246   43.3243 C   0  0  0  0  0  0  0  0  0  0  0  0
   70.8625   51.4670   44.5714 C   0  0  0  0  0  0  0  0  0  0  0  0
   70.5651   53.2803   46.1880 C   0  0  0  0  0  0  0  0  0  0  0  0
   72.1865   53.1524   43.2415 C   0  0  0  0  0  0  0  0  0  0  0  0
   72.6530   54.4428   45.2962 C   0  0  0  0  0  0  0  0  0  0  0  0
   72.3292   55.8312   45.7235 C   0  0  0  0  0  0  0  0  0  0  0  0
   72.1254   53.2818   46.0854 C   0  0  0  0  0  0  0  0  0  0  0  0
   70.1116   51.8424   45.8296 C   0  0  0  0  0  0  0  0  0  0  0  0
   74.3863   58.1285   41.0224 C   0  0  0  0  0  0  0  0  0  0  0  0
   74.1327   57.1910   42.1150 C   0  0  0  0  0  0  0  0  0  0  0  0
  1  3  1  0
  1  8  1  0
  1  9  1  0
  2  7  1  0
  2 15  1  0
  2 16  1  0
  3 11  1  0
  4  6  1  0
  4  7  2  0
  4 10  1  0
  5 10  1  0
  5 20  1  0
  6 11  1  0
  7 12  1  0
  8 13  1  0
  8 15  1  0
 10 21  1  0
 11 15  1  0
 12 21  1  0
 13 19  1  0
 14 18  1  0
 14 19  1  0
 16 17  1  0
 16 18  1  0
 20 21  1  0
M  END
>  <ID>  (1) 
conformer_0

$$$$
