
     RDKit          3D

 25 27  0  0  0  0  0  0  0  0999 V2000
   74.6314   52.5015   38.7450 C   0  0  0  0  0  0  0  0  0  0  0  0
   73.2317   55.9820   41.2566 C   0  0  0  0  0  0  0  0  0  0  0  0
   71.4103   54.5292   41.6663 C   0  0  0  0  0  0  0  0  0  0  0  0
   71.1807   53.6095   45.0000 N   0  0  0  0  0  0  0  0  0  0  0  0
   70.0290   52.5897   46.7764 C   0  0  0  0  0  0  0  0  0  0  0  0
   72.1219   51.3043   38.6398 C   0  0  0  0  0  0  0  0  0  0  0  0
   71.6287   53.7666   43.7459 C   0  0  0  0  0  0  0  0  0  0  0  0
   74.4643   57.7727   42.2840 C   0  0  0  0  0  0  0  0  0  0  0  0
   72.4480   51.6486   45.5873 C   0  0  0  0  0  0  0  0  0  0  0  0
   72.7232   55.4967   39.9506 C   0  0  0  0  0  0  0  0  0  0  0  0
   75.4717   56.5785   40.3343 C   0  0  0  0  0  0  0  0  0  0  0  0
   72.6134   55.0737   42.2747 C   0  0  0  0  0  0  0  0  0  0  0  0
   70.8067   53.8819   42.7049 N   0  0  0  0  0  0  0  0  0  0  0  0
   73.1595   51.4716   46.7469 O   0  0  0  0  0  0  0  0  0  0  0  0
   73.6939   54.6702   39.2323 C   0  0  0  0  0  0  0  0  0  0  0  0
   74.9495   56.7530   43.2281 C   0  0  0  0  0  0  0  0  0  0  0  0
   74.1950   57.0983   40.9997 C   0  0  0  0  0  0  0  0  0  0  0  0
   73.2438   50.5967   38.2999 C   0  0  0  0  0  0  0  0  0  0  0  0
   72.2739   52.6181   38.9804 C   0  0  0  0  0  0  0  0  0  0  0  0
   73.6779   57.3457   43.3544 N   0  0  0  0  0  0  0  0  0  0  0  0
   73.5078   53.2488   39.0099 C   0  0  0  0  0  0  0  0  0  0  0  0
   74.4775   51.2004   38.3569 C   0  0  0  0  0  0  0  0  0  0  0  0
   72.7923   54.3428   43.3776 N   0  0  0  0  0  0  0  0  0  0  0  0
   71.4488   54.8766   40.2728 C   0  0  0  0  0  0  0  0  0  0  0  0
   71.2066   52.4625   45.8639 C   0  0  0  0  0  0  0  0  0  0  0  0
  1 21  1  0
  1 22  2  0
  2 10  1  0
  2 12  1  0
  2 17  1  0
  3 12  1  0
  3 13  1  0
  3 24  1  0
  4  7  2  3
  4 25  1  0
  5 25  1  0
  6 18  1  0
  6 19  2  0
  7 13  1  0
  7 23  1  0
  8 17  1  0
  8 20  1  0
  9 14  1  0
  9 25  1  0
 10 15  1  0
 10 24  1  0
 11 17  1  0
 12 23  1  0
 15 21  1  0
 16 20  1  0
 18 22  1  0
 19 21  1  0
M  END
>  <ID>  (1) 
conformer_0

$$$$
