
     RDKit          3D

 20 22  0  0  0  0  0  0  0  0999 V2000
   71.8411   55.2705   42.5772 C   0  0  0  0  0  0  0  0  0  0  0  0
   72.0742   54.0129   40.1389 O   0  0  0  0  0  0  0  0  0  0  0  0
   72.7883   55.2053   40.3191 C   0  0  0  0  0  0  0  0  0  0  0  0
   71.6324   53.8591   42.5510 C   0  0  0  0  0  0  0  0  0  0  0  0
   73.2510   57.4818   43.0669 O   0  0  0  0  0  0  0  0  0  0  0  0
   71.0536   52.3431   44.4062 C   0  0  0  0  0  0  0  0  0  0  0  0
   72.6823   54.1551   44.7737 C   0  0  0  0  0  0  0  0  0  0  0  0
   73.3754   56.9907   41.8354 C   0  0  0  0  0  0  0  0  0  0  0  0
   72.6675   55.7880   41.5726 C   0  0  0  0  0  0  0  0  0  0  0  0
   71.6898   53.3234   41.2470 N   0  0  0  0  0  0  0  0  0  0  0  0
   71.9619   53.2939   43.8736 C   0  0  0  0  0  0  0  0  0  0  0  0
   73.5621   55.7856   39.3235 C   0  0  0  0  0  0  0  0  0  0  0  0
   72.3731   52.4583   46.4181 C   0  0  0  0  0  0  0  0  0  0  0  0
   74.2282   56.9596   39.6377 C   0  0  0  0  0  0  0  0  0  0  0  0
   71.0753   52.2208   45.8691 C   0  0  0  0  0  0  0  0  0  0  0  0
   72.9138   51.6716   47.2503 O   0  0  0  0  0  0  0  0  0  0  0  0
   74.1403   57.5822   40.8697 C   0  0  0  0  0  0  0  0  0  0  0  0
   69.9012   52.8435   46.4951 C   0  0  0  0  0  0  0  0  0  0  0  0
   70.0985   51.8543   43.6805 O   0  0  0  0  0  0  0  0  0  0  0  0
   73.0636   53.5720   45.9627 N   0  0  0  0  0  0  0  0  0  0  0  0
  1  4  1  0
  1  9  1  0
  2  3  1  0
  2 10  1  0
  3  9  2  0
  3 12  1  0
  4 10  1  0
  4 11  1  0
  5  8  1  0
  6 11  1  0
  6 15  1  0
  6 19  1  0
  7 11  1  0
  7 20  1  0
  8  9  1  0
  8 17  2  0
 12 14  2  0
 13 15  1  0
 13 16  2  0
 13 20  1  0
 14 17  1  0
 15 18  1  0
M  END
>  <ID>  (1) 
conformer_0

$$$$
