
     RDKit          3D

 22 25  0  0  0  0  0  0  0  0999 V2000
   73.8987   55.2020   40.8365 C   0  0  0  0  0  0  0  0  0  0  0  0
   74.4553   53.7921   38.9989 C   0  0  0  0  0  0  0  0  0  0  0  0
   73.3006   54.2847   46.3928 C   0  0  0  0  0  0  0  0  0  0  0  0
   72.0624   56.3680   46.5396 O   0  0  0  0  0  0  0  0  0  0  0  0
   72.8286   54.4224   41.1462 C   0  0  0  0  0  0  0  0  0  0  0  0
   72.0387   54.7424   42.3170 C   0  0  0  0  0  0  0  0  0  0  0  0
   74.7271   54.8949   39.7715 C   0  0  0  0  0  0  0  0  0  0  0  0
   72.6690   53.3520   45.5358 N   0  0  0  0  0  0  0  0  0  0  0  0
   72.8155   51.9753   45.6418 C   0  0  0  0  0  0  0  0  0  0  0  0
   71.3750   52.4356   40.5317 C   0  0  0  0  0  0  0  0  0  0  0  0
   72.4707   55.3282   44.4333 C   0  0  0  0  0  0  0  0  0  0  0  0
   72.5396   53.3025   40.3312 C   0  0  0  0  0  0  0  0  0  0  0  0
   73.3472   51.4494   46.6928 O   0  0  0  0  0  0  0  0  0  0  0  0
   71.6672   53.6448   43.2029 C   0  0  0  0  0  0  0  0  0  0  0  0
   73.3732   52.9871   39.2704 C   0  0  0  0  0  0  0  0  0  0  0  0
   69.5171   53.3912   42.2722 O   0  0  0  0  0  0  0  0  0  0  0  0
   70.5837   52.7464   42.8550 C   0  0  0  0  0  0  0  0  0  0  0  0
   72.4693   55.7288   43.1643 N   0  0  0  0  0  0  0  0  0  0  0  0
   70.7197   51.7928   41.6730 C   0  0  0  0  0  0  0  0  0  0  0  0
   72.0229   53.9902   44.5131 C   0  0  0  0  0  0  0  0  0  0  0  0
   74.2214   56.7283   45.5492 C   0  0  0  0  0  0  0  0  0  0  0  0
   73.0570   55.6975   45.7872 C   0  0  0  0  0  0  0  0  0  0  0  0
  1  5  2  0
  1  7  1  0
  2  7  1  0
  2 15  2  0
  3  8  1  0
  3 22  1  0
  4 22  1  0
  5  6  1  0
  5 12  1  0
  6 14  1  0
  6 18  1  0
  8  9  1  0
  8 20  1  0
  9 13  1  0
 10 12  1  0
 10 19  1  0
 11 18  1  0
 11 20  1  0
 11 22  1  0
 12 15  1  0
 14 17  1  0
 14 20  1  0
 16 17  1  0
 17 19  1  0
 21 22  1  0
M  END
>  <ID>  (1) 
conformer_0

$$$$
