
     RDKit          3D

 25 27  0  0  0  0  0  0  0  0999 V2000
   74.8004   56.6191   41.2235 C   0  0  0  0  0  0  0  0  0  0  0  0
   73.1842   53.5606   42.2433 C   0  0  0  0  0  0  0  0  0  0  0  0
   76.0069   54.8290   44.3052 C   0  0  0  0  0  0  0  0  0  0  0  0
   74.8157   56.9055   43.7755 O   0  0  0  0  0  0  0  0  0  0  0  0
   73.2765   56.1399   41.0990 C   0  0  0  0  0  0  0  0  0  0  0  0
   70.6816   52.9084   43.5707 C   0  0  0  0  0  0  0  0  0  0  0  0
   71.6659   53.7306   42.6771 C   0  0  0  0  0  0  0  0  0  0  0  0
   72.5213   53.1897   45.4882 C   0  0  0  0  0  0  0  0  0  0  0  0
   74.8176   55.5345   43.5306 C   0  0  0  0  0  0  0  0  0  0  0  0
   71.0001   53.9977   41.2804 C   0  0  0  0  0  0  0  0  0  0  0  0
   69.4295   51.5511   45.2314 C   0  0  0  0  0  0  0  0  0  0  0  0
   70.6551   51.6023   44.3394 C   0  0  0  0  0  0  0  0  0  0  0  0
   72.5195   52.1454   46.1885 O   0  0  0  0  0  0  0  0  0  0  0  0
   73.6005   55.0179   44.2867 C   0  0  0  0  0  0  0  0  0  0  0  0
   72.6354   55.6487   45.3043 C   0  0  0  0  0  0  0  0  0  0  0  0
   73.8732   53.5813   44.8673 C   0  0  0  0  0  0  0  0  0  0  0  0
   68.6801   53.0910   41.9273 O   0  0  0  0  0  0  0  0  0  0  0  0
   71.6252   54.4691   45.6377 C   0  0  0  0  0  0  0  0  0  0  0  0
   73.7427   54.5960   41.2685 C   0  0  0  0  0  0  0  0  0  0  0  0
   75.4215   53.4766   44.7588 C   0  0  0  0  0  0  0  0  0  0  0  0
   71.2921   54.5822   39.9010 C   0  0  0  0  0  0  0  0  0  0  0  0
   73.3500   55.8846   46.5380 O   0  0  0  0  0  0  0  0  0  0  0  0
   74.3753   54.1047   39.9080 C   0  0  0  0  0  0  0  0  0  0  0  0
   69.5886   53.7294   41.3172 C   0  0  0  0  0  0  0  0  0  0  0  0
   75.1525   55.2511   42.0211 C   0  0  0  0  0  0  0  0  0  0  0  0
  1  5  1  0
  1 25  1  0
  2  7  1  0
  2 19  1  0
  3  9  1  0
  3 20  1  0
  4  9  1  0
  5 19  1  0
  6  7  1  0
  6 12  1  0
  7 10  1  0
  8 13  2  0
  8 16  1  0
  8 18  1  0
  9 14  1  0
  9 25  1  0
 10 21  1  0
 10 24  1  0
 11 12  1  0
 14 15  1  0
 14 16  1  0
 15 18  1  0
 15 22  1  0
 16 20  1  0
 17 24  2  0
 19 23  1  0
 19 25  1  0
M  END
>  <ID>  (1) 
conformer_0

$$$$
