
     RDKit          3D

 21 23  0  0  0  0  0  0  0  0999 V2000
   72.6689   54.3205   41.4138 C   0  0  0  0  0  0  0  0  0  0  0  0
   74.3938   57.7610   41.1917 C   0  0  0  0  0  0  0  0  0  0  0  0
   70.6574   52.1334   43.9225 N   0  0  0  0  0  0  0  0  0  0  0  0
   71.3677   53.1008   43.3521 C   0  0  0  0  0  0  0  0  0  0  0  0
   69.5408   51.9240   41.4101 C   0  0  0  0  0  0  0  0  0  0  0  0
   73.2301   55.4312   42.0256 C   0  0  0  0  0  0  0  0  0  0  0  0
   70.6918   53.0722   39.6620 C   0  0  0  0  0  0  0  0  0  0  0  0
   73.1906   54.3506   39.9751 C   0  0  0  0  0  0  0  0  0  0  0  0
   70.9762   52.3425   40.9645 C   0  0  0  0  0  0  0  0  0  0  0  0
   71.1985   53.5011   45.5042 C   0  0  0  0  0  0  0  0  0  0  0  0
   73.9903   55.6691   39.8178 C   0  0  0  0  0  0  0  0  0  0  0  0
   71.2523   54.1035   46.7723 C   0  0  0  0  0  0  0  0  0  0  0  0
   73.2944   55.6797   43.4251 C   0  0  0  0  0  0  0  0  0  0  0  0
   70.5571   52.3755   45.1784 N   0  0  0  0  0  0  0  0  0  0  0  0
   72.5853   55.0351   44.3355 C   0  0  0  0  0  0  0  0  0  0  0  0
   74.2788   56.7064   43.9732 C   0  0  0  0  0  0  0  0  0  0  0  0
   69.9001   51.5298   46.1926 C   0  0  0  0  0  0  0  0  0  0  0  0
   71.7486   53.3129   41.9365 C   0  0  0  0  0  0  0  0  0  0  0  0
   71.8272   51.0171   40.9690 C   0  0  0  0  0  0  0  0  0  0  0  0
   73.8565   56.4047   41.1249 C   0  0  0  0  0  0  0  0  0  0  0  0
   71.7644   53.9624   44.3557 C   0  0  0  0  0  0  0  0  0  0  0  0
  1  6  1  0
  1  8  1  0
  1 18  2  0
  2 20  1  0
  3  4  1  0
  3 14  1  0
  4 18  1  0
  4 21  2  0
  5  9  1  0
  6 13  1  0
  6 20  2  0
  7  9  1  0
  8 11  1  0
  9 18  1  0
  9 19  1  0
 10 12  1  0
 10 14  1  0
 10 21  1  0
 11 20  1  0
 13 15  2  0
 13 16  1  0
 14 17  1  0
 15 21  1  0
M  END
>  <ID>  (1) 
conformer_0

$$$$
