
     RDKit          3D

 19 21  0  0  0  0  0  0  0  0999 V2000
   72.2993   55.0360   43.7325 C   0  0  0  0  0  0  0  0  0  0  0  0
   73.3378   55.6146   42.9212 C   0  0  0  0  0  0  0  0  0  0  0  0
   73.7329   55.1254   41.5430 C   0  0  0  0  0  0  0  0  0  0  0  0
   73.8986   56.9345   43.3551 C   0  0  0  0  0  0  0  0  0  0  0  0
   70.9584   54.8404   41.1905 C   0  0  0  0  0  0  0  0  0  0  0  0
   71.8380   54.2384   40.1280 C   0  0  0  0  0  0  0  0  0  0  0  0
   71.1032   53.0684   39.5639 C   0  0  0  0  0  0  0  0  0  0  0  0
   75.2659   55.3081   41.4193 C   0  0  0  0  0  0  0  0  0  0  0  0
   72.0779   54.4456   44.9908 C   0  0  0  0  0  0  0  0  0  0  0  0
   70.7690   52.0718   40.7281 C   0  0  0  0  0  0  0  0  0  0  0  0
   71.6570   53.9454   47.2572 C   0  0  0  0  0  0  0  0  0  0  0  0
   73.1672   57.4549   44.4510 O   0  0  0  0  0  0  0  0  0  0  0  0
   72.1426   55.0120   46.3626 C   0  0  0  0  0  0  0  0  0  0  0  0
   73.2678   54.5163   40.1905 C   0  0  0  0  0  0  0  0  0  0  0  0
   69.5940   54.1802   41.0285 C   0  0  0  0  0  0  0  0  0  0  0  0
   69.7681   52.8089   41.6069 O   0  0  0  0  0  0  0  0  0  0  0  0
   70.9311   52.9267   46.4171 C   0  0  0  0  0  0  0  0  0  0  0  0
   71.0324   53.3622   45.0149 C   0  0  0  0  0  0  0  0  0  0  0  0
   69.6868   53.8243   39.4526 C   0  0  0  0  0  0  0  0  0  0  0  0
  1  2  1  0
  1  9  1  0
  2  3  1  0
  2  4  1  0
  3  8  1  0
  3 14  1  0
  4 12  1  0
  5  6  1  0
  5 15  1  0
  6  7  1  0
  6 14  1  0
  7 10  1  0
  7 19  1  0
  9 13  1  0
  9 18  1  0
 10 16  1  0
 11 13  1  0
 11 17  1  0
 15 16  1  0
 15 19  1  0
 17 18  1  0
M  END
>  <ID>  (1) 
conformer_0

$$$$
