
     RDKit          3D

 33 36  0  0  0  0  0  0  0  0999 V2000
   73.0227   50.8553   44.4059 O   0  0  0  0  0  0  0  0  0  0  0  0
   73.9092   55.0226   46.0328 C   0  0  0  0  0  0  0  0  0  0  0  0
   71.8206   55.3758   47.1192 C   0  0  0  0  0  0  0  0  0  0  0  0
   69.1614   54.7194   40.7841 C   0  0  0  0  0  0  0  0  0  0  0  0
   74.1023   54.9536   41.3055 O   0  0  0  0  0  0  0  0  0  0  0  0
   76.2834   55.7574   42.2976 C   0  0  0  0  0  0  0  0  0  0  0  0
   73.4659   51.4390   41.6133 C   0  0  0  0  0  0  0  0  0  0  0  0
   72.1743   53.3651   45.8933 C   0  0  0  0  0  0  0  0  0  0  0  0
   71.2150   52.8442   41.4801 C   0  0  0  0  0  0  0  0  0  0  0  0
   74.9764   57.4645   41.0125 C   0  0  0  0  0  0  0  0  0  0  0  0
   73.1063   55.8248   46.7600 C   0  0  0  0  0  0  0  0  0  0  0  0
   68.9607   53.6720   41.6869 O   0  0  0  0  0  0  0  0  0  0  0  0
   72.9233   54.9272   40.5478 C   0  0  0  0  0  0  0  0  0  0  0  0
   72.0077   51.5117   41.8205 C   0  0  0  0  0  0  0  0  0  0  0  0
   76.1574   51.8685   43.1669 C   0  0  0  0  0  0  0  0  0  0  0  0
   73.9221   51.7554   44.0037 C   0  0  0  0  0  0  0  0  0  0  0  0
   70.4794   54.9589   40.2155 C   0  0  0  0  0  0  0  0  0  0  0  0
   75.2755   52.2612   45.8011 O   0  0  0  0  0  0  0  0  0  0  0  0
   76.5822   56.9148   43.2177 C   0  0  0  0  0  0  0  0  0  0  0  0
   73.8648   51.7668   40.3608 O   0  0  0  0  0  0  0  0  0  0  0  0
   75.1593   53.8691   44.0062 C   0  0  0  0  0  0  0  0  0  0  0  0
   69.8412   52.7122   42.1200 C   0  0  0  0  0  0  0  0  0  0  0  0
   76.9675   54.5171   42.6294 C   0  0  0  0  0  0  0  0  0  0  0  0
   73.4735   53.7669   45.6048 C   0  0  0  0  0  0  0  0  0  0  0  0
   78.1828   54.5467   42.9572 O   0  0  0  0  0  0  0  0  0  0  0  0
   71.6384   54.1527   40.8234 C   0  0  0  0  0  0  0  0  0  0  0  0
   75.1922   55.9723   41.2820 C   0  0  0  0  0  0  0  0  0  0  0  0
   74.6675   51.4441   42.7350 C   0  0  0  0  0  0  0  0  0  0  0  0
   76.2145   53.4104   43.1250 N   0  0  0  0  0  0  0  0  0  0  0  0
   74.4596   52.8441   44.8540 C   0  0  0  0  0  0  0  0  0  0  0  0
   71.3391   54.1458   46.6354 C   0  0  0  0  0  0  0  0  0  0  0  0
   73.0142   55.6287   39.4683 O   0  0  0  0  0  0  0  0  0  0  0  0
   74.1292   50.3628   42.0871 O   0  0  0  0  0  0  0  0  0  0  0  0
  1 16  1  0
  2 11  2  0
  2 24  1  0
  3 11  1  0
  3 31  1  0
  4 12  1  0
  4 17  2  0
  5 13  1  0
  5 27  1  0
  6 19  1  0
  6 23  1  0
  6 27  1  0
  7 14  1  0
  7 20  1  0
  7 33  1  0
  8 24  1  0
  8 31  2  0
  9 14  2  0
  9 22  1  0
  9 26  1  0
 10 27  1  0
 12 22  1  0
 13 26  1  0
 13 32  2  0
 15 28  1  0
 15 29  1  0
 16 28  1  0
 16 30  1  0
 17 26  1  0
 18 30  1  0
 21 29  1  0
 21 30  1  0
 23 25  2  0
 23 29  1  0
 24 30  1  0
 28 33  1  0
M  END
>  <ID>  (1) 
conformer_0

$$$$
