
     RDKit          3D

 24 28  0  0  0  0  0  0  0  0999 V2000
   72.9655   52.9871   44.9114 C   0  0  0  0  0  0  0  0  0  0  0  0
   73.3049   54.8053   41.5102 C   0  0  0  0  0  0  0  0  0  0  0  0
   73.7406   51.9824   39.0447 C   0  0  0  0  0  0  0  0  0  0  0  0
   70.9523   51.5036   43.0331 C   0  0  0  0  0  0  0  0  0  0  0  0
   73.8894   53.4313   39.4760 C   0  0  0  0  0  0  0  0  0  0  0  0
   72.9207   56.3185   41.3895 C   0  0  0  0  0  0  0  0  0  0  0  0
   73.1086   58.1238   43.1010 O   0  0  0  0  0  0  0  0  0  0  0  0
   70.9980   53.1735   47.3502 O   0  0  0  0  0  0  0  0  0  0  0  0
   70.6242   52.0205   44.4575 C   0  0  0  0  0  0  0  0  0  0  0  0
   73.2304   54.7457   39.1281 C   0  0  0  0  0  0  0  0  0  0  0  0
   73.3615   55.4761   43.9725 C   0  0  0  0  0  0  0  0  0  0  0  0
   73.1904   51.1303   40.2603 C   0  0  0  0  0  0  0  0  0  0  0  0
   71.7922   52.1535   45.3692 C   0  0  0  0  0  0  0  0  0  0  0  0
   74.9109   52.9185   41.6251 O   0  0  0  0  0  0  0  0  0  0  0  0
   73.7049   53.3594   41.0297 C   0  0  0  0  0  0  0  0  0  0  0  0
   72.8207   55.4984   40.3495 C   0  0  0  0  0  0  0  0  0  0  0  0
   72.7093   51.7273   47.4307 O   0  0  0  0  0  0  0  0  0  0  0  0
   72.8428   53.0898   43.4426 C   0  0  0  0  0  0  0  0  0  0  0  0
   72.8568   54.5204   42.9415 C   0  0  0  0  0  0  0  0  0  0  0  0
   72.3763   51.8757   42.6697 C   0  0  0  0  0  0  0  0  0  0  0  0
   71.7459   52.2870   46.8698 C   0  0  0  0  0  0  0  0  0  0  0  0
   72.5960   52.2299   41.1833 C   0  0  0  0  0  0  0  0  0  0  0  0
   74.4539   56.2802   43.2757 C   0  0  0  0  0  0  0  0  0  0  0  0
   73.6342   57.1439   42.3244 C   0  0  0  0  0  0  0  0  0  0  0  0
  1 13  1  0
  1 18  1  0
  2 15  1  0
  2 16  1  0
  2 19  1  0
  3  5  1  0
  3 12  1  0
  4  9  1  0
  4 20  1  0
  5 10  1  0
  5 15  1  0
  6 16  1  0
  6 24  1  0
  7 24  1  0
  8 21  2  0
  9 13  1  0
 10 16  1  0
 11 19  1  0
 11 23  1  0
 12 22  1  0
 13 21  1  0
 14 15  1  0
 15 22  1  0
 17 21  1  0
 18 19  1  0
 18 20  1  0
 20 22  1  0
 23 24  1  0
M  END
>  <ID>  (1) 
conformer_0

$$$$
