
     RDKit          3D

 18 18  0  0  0  0  0  0  0  0999 V2000
   69.9012   49.9775   43.3650 C   0  0  0  0  0  0  0  0  0  0  0  0
   72.7232   57.7026   41.3392 F   0  0  0  0  0  0  0  0  0  0  0  0
   73.4026   56.2637   39.9066 F   0  0  0  0  0  0  0  0  0  0  0  0
   73.1837   56.9648   44.6353 N   0  0  0  0  0  0  0  0  0  0  0  0
   73.6983   56.8490   41.0774 C   0  0  0  0  0  0  0  0  0  0  0  0
   72.8843   55.2880   43.0186 C   0  0  0  0  0  0  0  0  0  0  0  0
   74.8398   57.5333   40.8449 F   0  0  0  0  0  0  0  0  0  0  0  0
   72.4393   52.1355   45.2038 O   0  0  0  0  0  0  0  0  0  0  0  0
   73.8306   55.8475   42.1352 C   0  0  0  0  0  0  0  0  0  0  0  0
   71.3097   52.9192   44.8638 C   0  0  0  0  0  0  0  0  0  0  0  0
   71.3780   53.3590   43.3937 C   0  0  0  0  0  0  0  0  0  0  0  0
   73.5528   54.8839   45.2621 O   0  0  0  0  0  0  0  0  0  0  0  0
   70.0658   51.4411   43.5317 C   0  0  0  0  0  0  0  0  0  0  0  0
   70.0417   51.9086   44.9107 C   0  0  0  0  0  0  0  0  0  0  0  0
   72.1248   54.2745   42.6905 N   0  0  0  0  0  0  0  0  0  0  0  0
   73.0542   55.6599   44.4077 C   0  0  0  0  0  0  0  0  0  0  0  0
   70.9936   53.9252   45.9939 C   0  0  0  0  0  0  0  0  0  0  0  0
   70.8680   52.2370   42.6991 N   0  0  0  0  0  0  0  0  0  0  0  0
  1 13  1  0
  2  5  1  0
  3  5  1  0
  4 16  1  0
  5  7  1  0
  5  9  1  0
  6  9  1  0
  6 15  2  3
  6 16  1  0
  8 10  1  0
 10 11  1  0
 10 14  1  0
 10 17  1  0
 11 15  1  0
 11 18  2  0
 12 16  2  0
 13 14  1  0
 13 18  1  0
M  END
>  <ID>  (1) 
conformer_0

$$$$
