
     RDKit          3D

 13 14  0  0  0  0  0  0  0  0999 V2000
   72.4332   55.3906   41.5628 C   0  0  0  0  0  0  0  0  0  0  0  0
   71.4367   51.8318   45.6440 O   0  0  0  0  0  0  0  0  0  0  0  0
   73.0646   56.1533   44.4996 C   0  0  0  0  0  0  0  0  0  0  0  0
   71.5471   52.4105   43.3834 N   0  0  0  0  0  0  0  0  0  0  0  0
   72.4587   54.8829   44.0243 C   0  0  0  0  0  0  0  0  0  0  0  0
   71.9034   53.2407   42.4234 C   0  0  0  0  0  0  0  0  0  0  0  0
   72.3581   54.8805   40.2778 C   0  0  0  0  0  0  0  0  0  0  0  0
   71.6760   52.7354   44.6737 C   0  0  0  0  0  0  0  0  0  0  0  0
   72.1372   53.5335   40.0460 C   0  0  0  0  0  0  0  0  0  0  0  0
   73.2379   57.2358   43.7949 N   0  0  0  0  0  0  0  0  0  0  0  0
   72.2702   54.5385   42.6719 C   0  0  0  0  0  0  0  0  0  0  0  0
   71.9093   52.6874   41.1201 C   0  0  0  0  0  0  0  0  0  0  0  0
   72.1224   53.9835   45.0176 C   0  0  0  0  0  0  0  0  0  0  0  0
  1  7  1  0
  1 11  2  0
  2  8  2  0
  3  5  1  0
  3 10  2  0
  4  6  2  0
  4  8  1  0
  5 11  1  0
  5 13  2  0
  6 11  1  0
  6 12  1  0
  7  9  2  0
  8 13  1  0
  9 12  1  0
M  END
>  <ID>  (1) 
conformer_0

$$$$
