
     RDKit          3D

 24 27  0  0  0  0  0  0  0  0999 V2000
   71.2907   51.5044   40.1095 C   0  0  0  0  0  0  0  0  0  0  0  0
   72.8735   57.3268   41.6742 C   0  0  0  0  0  0  0  0  0  0  0  0
   74.4280   55.9678   39.9603 C   0  0  0  0  0  0  0  0  0  0  0  0
   73.8458   56.6468   42.6116 C   0  0  0  0  0  0  0  0  0  0  0  0
   70.6960   53.8775   41.3575 C   0  0  0  0  0  0  0  0  0  0  0  0
   71.1291   52.9634   44.4769 C   0  0  0  0  0  0  0  0  0  0  0  0
   70.6202   52.6971   42.0582 C   0  0  0  0  0  0  0  0  0  0  0  0
   71.4398   52.7081   39.4409 C   0  0  0  0  0  0  0  0  0  0  0  0
   72.4309   56.3278   44.5464 O   0  0  0  0  0  0  0  0  0  0  0  0
   72.4058   53.2509   46.9282 C   0  0  0  0  0  0  0  0  0  0  0  0
   74.2612   54.3664   41.9451 C   0  0  0  0  0  0  0  0  0  0  0  0
   73.3083   56.9756   40.2245 C   0  0  0  0  0  0  0  0  0  0  0  0
   71.8922   51.0363   47.3692 O   0  0  0  0  0  0  0  0  0  0  0  0
   73.3441   55.2416   42.8382 N   0  0  0  0  0  0  0  0  0  0  0  0
   75.1887   55.3151   41.1731 C   0  0  0  0  0  0  0  0  0  0  0  0
   71.7641   52.0795   46.5761 C   0  0  0  0  0  0  0  0  0  0  0  0
   71.9846   54.0884   44.7707 C   0  0  0  0  0  0  0  0  0  0  0  0
   71.0641   51.9450   45.3877 C   0  0  0  0  0  0  0  0  0  0  0  0
   71.1216   53.8862   40.0673 C   0  0  0  0  0  0  0  0  0  0  0  0
   72.4901   54.1948   46.0320 C   0  0  0  0  0  0  0  0  0  0  0  0
   70.2895   52.7212   43.3714 N   0  0  0  0  0  0  0  0  0  0  0  0
   70.8688   51.5079   41.4296 C   0  0  0  0  0  0  0  0  0  0  0  0
   75.2697   56.5647   42.1868 C   0  0  0  0  0  0  0  0  0  0  0  0
   72.4835   55.2290   43.9332 C   0  0  0  0  0  0  0  0  0  0  0  0
  1  8  2  0
  1 22  1  0
  2  4  1  0
  2 12  1  0
  3 12  2  0
  3 15  1  0
  4 14  1  0
  4 23  1  0
  5  7  1  0
  5 19  2  0
  6 17  1  0
  6 18  2  0
  6 21  1  0
  7 21  1  0
  7 22  2  0
  8 19  1  0
  9 24  2  0
 10 16  2  0
 10 20  1  0
 11 14  1  0
 11 15  1  0
 13 16  1  0
 14 24  1  0
 15 23  1  0
 16 18  1  0
 17 20  2  0
 17 24  1  0
M  END
>  <ID>  (1) 
conformer_0

$$$$
