
     RDKit          3D

 30 34  0  0  0  0  0  0  0  0999 V2000
   71.3930   51.9031   39.3065 C   0  0  0  0  0  0  0  0  0  0  0  0
   71.6835   49.9245   40.8207 C   0  0  0  0  0  0  0  0  0  0  0  0
   71.9446   52.5358   45.5043 C   0  0  0  0  0  0  0  0  0  0  0  0
   73.4592   54.3212   46.0845 C   0  0  0  0  0  0  0  0  0  0  0  0
   70.7533   54.1907   40.3394 C   0  0  0  0  0  0  0  0  0  0  0  0
   72.3828   52.5699   42.9595 C   0  0  0  0  0  0  0  0  0  0  0  0
   72.3976   54.3575   47.1244 C   0  0  0  0  0  0  0  0  0  0  0  0
   74.5840   56.7331   41.8227 C   0  0  0  0  0  0  0  0  0  0  0  0
   71.2122   52.8164   40.4949 C   0  0  0  0  0  0  0  0  0  0  0  0
   71.9331   52.2949   41.5961 C   0  0  0  0  0  0  0  0  0  0  0  0
   75.5673   54.2579   43.9745 C   0  0  0  0  0  0  0  0  0  0  0  0
   70.1421   53.3452   46.7616 O   0  0  0  0  0  0  0  0  0  0  0  0
   73.6463   58.6985   41.2582 C   0  0  0  0  0  0  0  0  0  0  0  0
   74.1848   55.9810   43.0243 O   0  0  0  0  0  0  0  0  0  0  0  0
   73.1604   57.2809   41.3498 C   0  0  0  0  0  0  0  0  0  0  0  0
   70.8914   50.5250   39.7146 C   0  0  0  0  0  0  0  0  0  0  0  0
   75.4333   55.8310   40.8610 C   0  0  0  0  0  0  0  0  0  0  0  0
   70.7214   54.9343   41.6254 C   0  0  0  0  0  0  0  0  0  0  0  0
   74.1384   54.6580   43.4366 C   0  0  0  0  0  0  0  0  0  0  0  0
   72.2907   51.8458   46.6951 C   0  0  0  0  0  0  0  0  0  0  0  0
   72.4127   50.8500   41.6616 C   0  0  0  0  0  0  0  0  0  0  0  0
   75.0520   58.2428   41.5310 C   0  0  0  0  0  0  0  0  0  0  0  0
   72.8149   50.9620   43.1426 C   0  0  0  0  0  0  0  0  0  0  0  0
   70.7067   52.8885   48.0968 C   0  0  0  0  0  0  0  0  0  0  0  0
   71.5700   53.0548   46.8625 C   0  0  0  0  0  0  0  0  0  0  0  0
   75.7942   54.5228   41.4332 O   0  0  0  0  0  0  0  0  0  0  0  0
   69.4113   52.2118   46.1504 C   0  0  0  0  0  0  0  0  0  0  0  0
   73.1650   53.2689   45.0485 C   0  0  0  0  0  0  0  0  0  0  0  0
   73.3037   53.4478   43.6041 C   0  0  0  0  0  0  0  0  0  0  0  0
   76.4166   54.6330   42.7844 C   0  0  0  0  0  0  0  0  0  0  0  0
  1  9  1  0
  1 16  1  0
  2 16  1  0
  2 21  1  0
  3 20  1  0
  3 28  1  0
  4  7  1  0
  4 28  1  0
  5  9  1  0
  5 18  1  0
  6 10  1  0
  6 23  1  0
  6 29  1  0
  7 25  1  0
  8 14  1  0
  8 15  1  0
  8 17  1  0
  8 22  1  0
  9 10  1  0
 10 21  1  0
 11 19  1  0
 11 30  1  0
 12 25  1  0
 12 27  1  0
 13 15  1  0
 13 22  1  0
 14 19  1  0
 17 26  1  0
 19 29  1  0
 20 25  1  0
 21 23  1  0
 24 25  1  0
 26 30  1  0
 28 29  1  0
M  END
>  <ID>  (1) 
conformer_0

$$$$
