
     RDKit          3D

 20 20  0  0  0  0  0  0  0  0999 V2000
   74.6883   55.2291   42.8698 C   0  0  0  0  0  0  0  0  0  0  0  0
   72.9250   56.1003   40.4725 C   0  0  0  0  0  0  0  0  0  0  0  0
   70.6475   50.0071   43.8670 C   0  0  0  0  0  0  0  0  0  0  0  0
   71.4367   54.0823   44.9240 C   0  0  0  0  0  0  0  0  0  0  0  0
   71.9745   53.9165   41.1190 C   0  0  0  0  0  0  0  0  0  0  0  0
   70.2011   55.4041   40.3629 C   0  0  0  0  0  0  0  0  0  0  0  0
   71.8861   52.0319   43.3087 C   0  0  0  0  0  0  0  0  0  0  0  0
   72.4987   54.6984   44.0715 C   0  0  0  0  0  0  0  0  0  0  0  0
   73.6774   51.9106   42.9435 S   0  0  0  0  0  0  0  0  0  0  0  0
   71.4547   54.1676   46.3512 C   0  0  0  0  0  0  0  0  0  0  0  0
   74.6159   55.1927   45.2616 O   0  0  0  0  0  0  0  0  0  0  0  0
   70.9861   52.6917   44.3986 C   0  0  0  0  0  0  0  0  0  0  0  0
   76.0085   55.0475   42.8749 O   0  0  0  0  0  0  0  0  0  0  0  0
   69.3451   54.2830   40.8029 C   0  0  0  0  0  0  0  0  0  0  0  0
   71.7057   55.1079   40.1862 C   0  0  0  0  0  0  0  0  0  0  0  0
   72.0157   54.5663   42.5643 C   0  0  0  0  0  0  0  0  0  0  0  0
   71.3559   50.7346   42.7843 C   0  0  0  0  0  0  0  0  0  0  0  0
   69.3910   50.5121   44.1500 O   0  0  0  0  0  0  0  0  0  0  0  0
   74.0727   55.9670   41.6354 C   0  0  0  0  0  0  0  0  0  0  0  0
   73.9922   54.8944   44.1636 C   0  0  0  0  0  0  0  0  0  0  0  0
  1 13  1  0
  1 19  1  0
  1 20  1  0
  2 15  1  0
  2 19  2  0
  3 17  1  0
  3 18  1  0
  4  8  1  0
  4 10  1  0
  4 12  1  0
  5 15  1  0
  5 16  1  0
  6 14  1  0
  6 15  1  0
  7  9  1  0
  7 12  1  0
  7 17  1  0
  8 16  1  0
  8 20  1  0
 11 20  1  0
M  END
>  <ID>  (1) 
conformer_0

$$$$
