
     RDKit          3D

 21 24  0  0  0  0  0  0  0  0999 V2000
   72.6956   54.3489   43.7263 C   0  0  0  0  0  0  0  0  0  0  0  0
   74.4912   54.9154   39.7439 C   0  0  0  0  0  0  0  0  0  0  0  0
   71.9370   54.1759   45.9938 C   0  0  0  0  0  0  0  0  0  0  0  0
   73.4999   56.4656   44.4441 C   0  0  0  0  0  0  0  0  0  0  0  0
   73.0549   56.3585   45.6969 C   0  0  0  0  0  0  0  0  0  0  0  0
   72.2585   54.0673   44.7674 C   0  0  0  0  0  0  0  0  0  0  0  0
   72.3823   55.4128   46.4513 C   0  0  0  0  0  0  0  0  0  0  0  0
   70.4086   53.2608   41.7322 C   0  0  0  0  0  0  0  0  0  0  0  0
   71.9593   52.9651   41.9008 C   0  0  0  0  0  0  0  0  0  0  0  0
   72.2185   55.4155   39.2042 C   0  0  0  0  0  0  0  0  0  0  0  0
   72.6660   53.8822   40.9701 C   0  0  0  0  0  0  0  0  0  0  0  0
   72.2892   51.6574   41.5410 O   0  0  0  0  0  0  0  0  0  0  0  0
   71.1968   52.1476   45.4084 C   0  0  0  0  0  0  0  0  0  0  0  0
   71.2709   53.0845   46.5050 C   0  0  0  0  0  0  0  0  0  0  0  0
   73.3815   55.5056   43.4423 C   0  0  0  0  0  0  0  0  0  0  0  0
   72.1564   53.2488   43.3991 N   0  0  0  0  0  0  0  0  0  0  0  0
   74.0314   54.0422   40.7386 C   0  0  0  0  0  0  0  0  0  0  0  0
   73.5935   55.6268   38.9905 C   0  0  0  0  0  0  0  0  0  0  0  0
   71.6210   52.3905   44.1687 N   0  0  0  0  0  0  0  0  0  0  0  0
   71.7841   54.5559   40.1613 C   0  0  0  0  0  0  0  0  0  0  0  0
   70.3683   54.2966   40.5740 C   0  0  0  0  0  0  0  0  0  0  0  0
  1  6  2  0
  1 15  1  0
  1 16  1  0
  2 17  1  0
  2 18  2  0
  3  6  2  0
  3  7  1  0
  3 14  1  0
  4  5  2  0
  4 15  1  0
  5  7  1  0
  8  9  1  0
  8 21  1  0
  9 11  1  0
  9 12  1  0
  9 16  1  0
 10 18  1  0
 10 20  2  0
 11 17  2  0
 11 20  1  0
 13 14  1  0
 13 19  2  0
 16 19  1  0
 20 21  1  0
M  END
>  <ID>  (1) 
conformer_0

$$$$
