
     RDKit          3D

 15 16  0  0  0  0  0  0  0  0999 V2000
   72.4098   55.1856   44.2189 C   0  0  0  0  0  0  0  0  0  0  0  0
   70.8800   53.0659   43.8716 N   0  0  0  0  0  0  0  0  0  0  0  0
   73.7077   55.6918   40.9207 O   0  0  0  0  0  0  0  0  0  0  0  0
   73.0969   55.9595   43.3195 C   0  0  0  0  0  0  0  0  0  0  0  0
   70.1501   52.3496   42.7715 C   0  0  0  0  0  0  0  0  0  0  0  0
   73.6942   57.0180   40.4728 C   0  0  0  0  0  0  0  0  0  0  0  0
   73.5914   57.1674   43.5737 O   0  0  0  0  0  0  0  0  0  0  0  0
   73.0806   55.3383   42.0952 C   0  0  0  0  0  0  0  0  0  0  0  0
   69.8092   51.1998   44.9457 C   0  0  0  0  0  0  0  0  0  0  0  0
   72.3816   55.4450   45.6227 C   0  0  0  0  0  0  0  0  0  0  0  0
   70.4652   52.5697   45.1050 C   0  0  0  0  0  0  0  0  0  0  0  0
   69.6486   51.0502   43.3874 C   0  0  0  0  0  0  0  0  0  0  0  0
   71.8160   54.0965   43.5391 C   0  0  0  0  0  0  0  0  0  0  0  0
   70.3127   53.3271   46.1252 O   0  0  0  0  0  0  0  0  0  0  0  0
   72.2579   54.1911   42.2336 C   0  0  0  0  0  0  0  0  0  0  0  0
  1  4  1  0
  1 10  1  0
  1 13  2  0
  2  5  1  0
  2 11  1  0
  2 13  1  0
  3  6  1  0
  3  8  1  0
  4  7  1  0
  4  8  2  0
  5 12  1  0
  8 15  1  0
  9 11  1  0
  9 12  1  0
 11 14  2  0
 13 15  1  0
M  END
>  <ID>  (1) 
conformer_0

$$$$
