
     RDKit          3D

 27 30  0  0  0  0  0  0  0  0999 V2000
   71.6125   50.7630   44.8667 O   0  0  0  0  0  0  0  0  0  0  0  0
   69.3825   52.7100   46.9524 C   0  0  0  0  0  0  0  0  0  0  0  0
   70.8122   52.3294   46.5085 C   0  0  0  0  0  0  0  0  0  0  0  0
   71.9391   54.2088   44.7480 C   0  0  0  0  0  0  0  0  0  0  0  0
   74.8189   56.0058   42.0500 C   0  0  0  0  0  0  0  0  0  0  0  0
   72.6392   55.2417   44.0560 C   0  0  0  0  0  0  0  0  0  0  0  0
   76.0122   55.4739   39.8618 N   0  0  0  0  0  0  0  0  0  0  0  0
   75.5046   55.6680   40.9095 C   0  0  0  0  0  0  0  0  0  0  0  0
   71.6663   53.4930   46.9867 C   0  0  0  0  0  0  0  0  0  0  0  0
   73.2512   54.5884   39.5167 C   0  0  0  0  0  0  0  0  0  0  0  0
   70.6961   51.9165   41.8815 C   0  0  0  0  0  0  0  0  0  0  0  0
   72.4591   55.0530   42.6303 C   0  0  0  0  0  0  0  0  0  0  0  0
   73.3298   57.5188   44.6849 N   0  0  0  0  0  0  0  0  0  0  0  0
   71.3642   54.6110   46.0136 C   0  0  0  0  0  0  0  0  0  0  0  0
   70.8815   51.9367   45.0013 C   0  0  0  0  0  0  0  0  0  0  0  0
   72.0113   53.9636   39.5659 C   0  0  0  0  0  0  0  0  0  0  0  0
   70.3556   52.6461   40.6555 C   0  0  0  0  0  0  0  0  0  0  0  0
   71.0992   53.8931   40.6853 C   0  0  0  0  0  0  0  0  0  0  0  0
   75.4190   55.0823   38.7900 N   0  0  0  0  0  0  0  0  0  0  0  0
   69.4986   51.7401   44.5139 C   0  0  0  0  0  0  0  0  0  0  0  0
   74.9896   56.3402   43.3574 C   0  0  0  0  0  0  0  0  0  0  0  0
   71.3933   52.8416   42.7338 C   0  0  0  0  0  0  0  0  0  0  0  0
   74.2076   54.7586   38.7912 C   0  0  0  0  0  0  0  0  0  0  0  0
   72.9921   56.2778   45.0220 C   0  0  0  0  0  0  0  0  0  0  0  0
   71.6835   54.0299   42.0003 C   0  0  0  0  0  0  0  0  0  0  0  0
   71.6315   52.9674   44.1580 C   0  0  0  0  0  0  0  0  0  0  0  0
   74.2804   57.6625   43.6335 C   0  0  0  0  0  0  0  0  0  0  0  0
  1 15  1  0
  2  3  1  0
  3  9  1  0
  3 15  1  0
  4  6  1  0
  4 14  1  0
  4 26  1  0
  5  8  1  0
  5 21  1  0
  6 12  1  0
  6 24  2  0
  7  8  1  0
  7 19  2  0
  9 14  1  0
 10 16  1  0
 10 23  2  0
 11 17  1  0
 11 22  1  0
 12 25  1  0
 13 24  1  0
 13 27  1  0
 15 20  1  0
 15 26  1  0
 16 18  1  0
 17 18  1  0
 18 25  1  0
 19 23  1  0
 21 27  1  0
 22 25  1  0
 22 26  1  0
M  END
>  <ID>  (1) 
conformer_0

$$$$
