
     RDKit          3D

 15 15  0  0  0  0  0  0  0  0999 V2000
   70.2078   52.9692   46.1071 C   0  0  0  0  0  0  0  0  0  0  0  0
   71.1517   53.7401   45.1679 C   0  0  0  0  0  0  0  0  0  0  0  0
   73.6976   52.3843   41.5659 O   0  0  0  0  0  0  0  0  0  0  0  0
   72.9813   53.2513   40.9773 C   0  0  0  0  0  0  0  0  0  0  0  0
   73.3672   57.6938   44.3002 O   0  0  0  0  0  0  0  0  0  0  0  0
   72.0311   53.9618   41.6315 N   0  0  0  0  0  0  0  0  0  0  0  0
   72.0243   54.1888   43.0421 C   0  0  0  0  0  0  0  0  0  0  0  0
   71.9210   54.6897   45.7010 N   0  0  0  0  0  0  0  0  0  0  0  0
   72.6991   55.4654   44.8785 C   0  0  0  0  0  0  0  0  0  0  0  0
   73.4358   56.6752   45.4425 C   0  0  0  0  0  0  0  0  0  0  0  0
   73.1300   53.5263   39.5783 O   0  0  0  0  0  0  0  0  0  0  0  0
   74.3326   52.8692   39.0027 C   0  0  0  0  0  0  0  0  0  0  0  0
   71.5248   55.0843   40.9190 C   0  0  0  0  0  0  0  0  0  0  0  0
   71.2114   53.4176   43.8363 C   0  0  0  0  0  0  0  0  0  0  0  0
   72.7882   55.1885   43.5603 C   0  0  0  0  0  0  0  0  0  0  0  0
  1  2  1  0
  2  8  2  0
  2 14  1  0
  3  4  2  0
  4  6  1  0
  4 11  1  0
  5 10  1  0
  6  7  1  0
  6 13  1  0
  7 14  2  0
  7 15  1  0
  8  9  1  0
  9 10  1  0
  9 15  2  0
 11 12  1  0
M  END
>  <ID>  (1) 
conformer_0

$$$$
