
     RDKit          3D

 28 32  0  0  0  0  0  0  0  0999 V2000
   74.9921   57.4636   43.0438 C   0  0  0  0  0  0  0  0  0  0  0  0
   71.8099   52.4944   41.2007 N   0  0  0  0  0  0  0  0  0  0  0  0
   72.5472   52.0317   38.9468 C   0  0  0  0  0  0  0  0  0  0  0  0
   70.7274   53.9815   39.6357 C   0  0  0  0  0  0  0  0  0  0  0  0
   70.5675   52.4963   44.0685 C   0  0  0  0  0  0  0  0  0  0  0  0
   71.0341   55.1622   40.4860 C   0  0  0  0  0  0  0  0  0  0  0  0
   69.5024   51.7752   43.4315 C   0  0  0  0  0  0  0  0  0  0  0  0
   70.2300   51.7412   47.6669 O   0  0  0  0  0  0  0  0  0  0  0  0
   72.1773   50.1594   40.6451 C   0  0  0  0  0  0  0  0  0  0  0  0
   73.5561   55.6151   43.4455 C   0  0  0  0  0  0  0  0  0  0  0  0
   72.3963   51.2253   41.6437 C   0  0  0  0  0  0  0  0  0  0  0  0
   71.6718   52.8285   39.8231 C   0  0  0  0  0  0  0  0  0  0  0  0
   74.5227   57.5068   41.7639 C   0  0  0  0  0  0  0  0  0  0  0  0
   75.1722   58.4880   40.7704 Cl  0  0  0  0  0  0  0  0  0  0  0  0
   73.0114   55.7284   42.1615 C   0  0  0  0  0  0  0  0  0  0  0  0
   73.5105   56.7024   41.3311 C   0  0  0  0  0  0  0  0  0  0  0  0
   74.5116   56.5031   43.8895 C   0  0  0  0  0  0  0  0  0  0  0  0
   73.0712   52.2112   46.2692 O   0  0  0  0  0  0  0  0  0  0  0  0
   72.4979   53.6303   44.4588 C   0  0  0  0  0  0  0  0  0  0  0  0
   72.4937   50.6645   39.3789 N   0  0  0  0  0  0  0  0  0  0  0  0
   69.7756   52.2815   46.4297 C   0  0  0  0  0  0  0  0  0  0  0  0
   72.1735   52.8127   45.5330 C   0  0  0  0  0  0  0  0  0  0  0  0
   73.2529   49.7699   38.5136 C   0  0  0  0  0  0  0  0  0  0  0  0
   73.3316   54.6782   44.3848 N   0  0  0  0  0  0  0  0  0  0  0  0
   70.8000   52.4363   45.4132 C   0  0  0  0  0  0  0  0  0  0  0  0
   71.7420   53.5517   42.0920 C   0  0  0  0  0  0  0  0  0  0  0  0
   71.9639   54.8799   41.5912 C   0  0  0  0  0  0  0  0  0  0  0  0
   71.5953   53.2732   43.4706 C   0  0  0  0  0  0  0  0  0  0  0  0
  1 13  1  0
  1 17  1  0
  2 11  1  0
  2 12  1  0
  2 26  1  0
  3 12  1  0
  3 20  1  0
  4  6  1  0
  4 12  1  0
  5  7  1  0
  5 25  1  0
  5 28  2  0
  6 27  1  0
  8 21  1  0
  9 11  1  0
  9 20  1  0
 10 15  1  0
 10 17  2  0
 10 24  1  0
 13 14  1  0
 13 16  2  0
 15 16  1  0
 15 27  1  0
 18 22  1  0
 19 22  1  0
 19 24  2  0
 19 28  1  0
 20 23  1  0
 21 25  1  0
 22 25  1  0
 26 27  1  0
 26 28  1  0
M  END
>  <ID>  (1) 
conformer_0

$$$$
