
     RDKit          3D

 21 22  0  0  0  0  0  0  0  0999 V2000
   71.8494   54.0215   47.0938 O   0  0  0  0  0  0  0  0  0  0  0  0
   73.6438   54.5472   39.4265 C   0  0  0  0  0  0  0  0  0  0  0  0
   73.1022   54.5099   40.8058 C   0  0  0  0  0  0  0  0  0  0  0  0
   72.6912   54.3603   44.7937 C   0  0  0  0  0  0  0  0  0  0  0  0
   69.7398   51.8467   43.3026 C   0  0  0  0  0  0  0  0  0  0  0  0
   73.2042   55.6554   41.5966 N   0  0  0  0  0  0  0  0  0  0  0  0
   72.2146   53.3072   45.8688 C   0  0  0  0  0  0  0  0  0  0  0  0
   73.2632   52.3140   46.0741 O   0  0  0  0  0  0  0  0  0  0  0  0
   70.7746   52.4822   43.8691 C   0  0  0  0  0  0  0  0  0  0  0  0
   72.9537   55.6160   45.1564 N   0  0  0  0  0  0  0  0  0  0  0  0
   74.2390   55.6149   38.9354 N   0  0  0  0  0  0  0  0  0  0  0  0
   73.2980   56.2911   44.0072 C   0  0  0  0  0  0  0  0  0  0  0  0
   73.6031   53.4294   38.7338 N   0  0  0  0  0  0  0  0  0  0  0  0
   72.5804   53.2042   41.1387 C   0  0  0  0  0  0  0  0  0  0  0  0
   68.8080   51.2618   44.1334 C   0  0  0  0  0  0  0  0  0  0  0  0
   70.9877   52.5825   45.2117 C   0  0  0  0  0  0  0  0  0  0  0  0
   70.0590   51.9975   46.0366 C   0  0  0  0  0  0  0  0  0  0  0  0
   68.9822   51.3332   45.5119 C   0  0  0  0  0  0  0  0  0  0  0  0
   73.0908   55.4453   42.9621 C   0  0  0  0  0  0  0  0  0  0  0  0
   72.6945   54.3214   43.4656 N   0  0  0  0  0  0  0  0  0  0  0  0
   72.9804   57.0137   41.2176 C   0  0  0  0  0  0  0  0  0  0  0  0
  1  7  1  0
  2  3  1  0
  2 11  2  0
  2 13  1  0
  3  6  1  0
  3 14  1  0
  4  7  1  0
  4 10  2  0
  4 20  1  0
  5  9  2  0
  5 15  1  0
  6 19  1  0
  6 21  1  0
  7  8  1  0
  7 16  1  0
  9 16  1  0
 10 12  1  0
 12 19  1  0
 15 18  2  0
 16 17  2  0
 17 18  1  0
 19 20  2  0
M  END
>  <ID>  (1) 
conformer_0

$$$$
