
     RDKit          3D

 35 39  0  0  0  0  0  0  0  0999 V2000
   72.2955   49.9001   43.7271 O   0  0  0  0  0  0  0  0  0  0  0  0
   75.3289   53.0073   44.6519 C   0  0  0  0  0  0  0  0  0  0  0  0
   74.4565   56.0054   44.9105 O   0  0  0  0  0  0  0  0  0  0  0  0
   70.1753   52.4613   46.1306 C   0  0  0  0  0  0  0  0  0  0  0  0
   70.2470   53.1974   41.5153 C   0  0  0  0  0  0  0  0  0  0  0  0
   72.9941   51.8382   45.0866 C   0  0  0  0  0  0  0  0  0  0  0  0
   69.2204   52.2862   48.3569 C   0  0  0  0  0  0  0  0  0  0  0  0
   72.9196   53.5907   40.7558 C   0  0  0  0  0  0  0  0  0  0  0  0
   73.3331   56.5159   41.4234 C   0  0  0  0  0  0  0  0  0  0  0  0
   72.0948   52.8375   39.9735 C   0  0  0  0  0  0  0  0  0  0  0  0
   74.6997   54.4523   45.0826 C   0  0  0  0  0  0  0  0  0  0  0  0
   72.5401   52.4536   38.7601 O   0  0  0  0  0  0  0  0  0  0  0  0
   71.4129   53.2009   48.0038 C   0  0  0  0  0  0  0  0  0  0  0  0
   74.2766   52.0128   44.3829 C   0  0  0  0  0  0  0  0  0  0  0  0
   73.2382   57.8614   41.2508 C   0  0  0  0  0  0  0  0  0  0  0  0
   76.2804   52.8584   43.4706 C   0  0  0  0  0  0  0  0  0  0  0  0
   70.1744   51.3128   39.9407 C   0  0  0  0  0  0  0  0  0  0  0  0
   71.3799   52.9401   46.6369 C   0  0  0  0  0  0  0  0  0  0  0  0
   71.0955   53.9970   42.3064 C   0  0  0  0  0  0  0  0  0  0  0  0
   73.8024   58.1354   43.5890 C   0  0  0  0  0  0  0  0  0  0  0  0
   73.2791   50.9751   46.0555 O   0  0  0  0  0  0  0  0  0  0  0  0
   69.1167   52.0805   46.9755 C   0  0  0  0  0  0  0  0  0  0  0  0
   73.5386   54.0475   46.0049 C   0  0  0  0  0  0  0  0  0  0  0  0
   73.4839   58.6670   42.3339 C   0  0  0  0  0  0  0  0  0  0  0  0
   72.4564   54.0297   41.9732 C   0  0  0  0  0  0  0  0  0  0  0  0
   73.3846   54.5584   42.8560 C   0  0  0  0  0  0  0  0  0  0  0  0
   74.4733   51.3148   43.1009 C   0  0  0  0  0  0  0  0  0  0  0  0
   71.9006   51.2643   44.1316 C   0  0  0  0  0  0  0  0  0  0  0  0
   73.9104   56.7668   43.7423 C   0  0  0  0  0  0  0  0  0  0  0  0
   70.3895   52.8594   48.8835 C   0  0  0  0  0  0  0  0  0  0  0  0
   72.4965   53.0923   45.7869 N   0  0  0  0  0  0  0  0  0  0  0  0
   73.6003   54.6975   47.1219 O   0  0  0  0  0  0  0  0  0  0  0  0
   70.8176   52.5043   40.4454 C   0  0  0  0  0  0  0  0  0  0  0  0
   73.5541   55.9495   42.6639 C   0  0  0  0  0  0  0  0  0  0  0  0
   75.8330   51.7205   42.6516 C   0  0  0  0  0  0  0  0  0  0  0  0
  1 28  1  0
  2 11  1  0
  2 14  1  0
  2 16  1  0
  3 11  1  0
  3 29  1  0
  4 18  2  0
  4 22  1  0
  5 19  2  0
  5 33  1  0
  6 14  1  0
  6 21  1  0
  6 28  1  0
  6 31  1  0
  7 22  2  0
  7 30  1  0
  8 10  2  0
  8 25  1  0
  9 15  2  0
  9 34  1  0
 10 12  1  0
 10 33  1  0
 11 23  1  0
 13 18  1  0
 13 30  2  0
 14 27  1  0
 15 24  1  0
 16 35  1  0
 17 33  1  0
 18 31  1  0
 19 25  1  0
 20 24  2  0
 20 29  1  0
 23 31  1  0
 23 32  2  0
 25 26  1  0
 26 34  1  0
 27 35  1  0
 29 34  1  0
M  END
>  <ID>  (1) 
conformer_0

$$$$
