
     RDKit          3D

 21 23  0  0  0  0  0  0  0  0999 V2000
   72.1247   54.3788   44.9252 C   0  0  0  0  0  0  0  0  0  0  0  0
   69.8993   54.2540   40.9366 N   0  0  0  0  0  0  0  0  0  0  0  0
   73.2467   58.3089   41.1708 C   0  0  0  0  0  0  0  0  0  0  0  0
   73.3792   51.7694   47.1652 O   0  0  0  0  0  0  0  0  0  0  0  0
   72.2221   51.5440   45.2632 N   0  0  0  0  0  0  0  0  0  0  0  0
   71.1563   52.0869   44.4004 C   0  0  0  0  0  0  0  0  0  0  0  0
   74.7864   54.9027   40.3442 O   0  0  0  0  0  0  0  0  0  0  0  0
   70.8995   55.1012   40.7192 C   0  0  0  0  0  0  0  0  0  0  0  0
   72.7025   52.3430   46.2761 C   0  0  0  0  0  0  0  0  0  0  0  0
   71.7530   55.0412   41.7929 C   0  0  0  0  0  0  0  0  0  0  0  0
   73.2694   56.2300   43.1866 C   0  0  0  0  0  0  0  0  0  0  0  0
   74.5715   56.2907   40.1846 C   0  0  0  0  0  0  0  0  0  0  0  0
   70.1350   53.5532   41.9864 N   0  0  0  0  0  0  0  0  0  0  0  0
   72.3395   53.7833   46.2583 C   0  0  0  0  0  0  0  0  0  0  0  0
   71.5240   53.4806   43.9688 C   0  0  0  0  0  0  0  0  0  0  0  0
   71.1732   54.0520   42.6721 C   0  0  0  0  0  0  0  0  0  0  0  0
   70.9934   50.9606   43.2693 C   0  0  0  0  0  0  0  0  0  0  0  0
   69.8285   52.0667   45.1895 C   0  0  0  0  0  0  0  0  0  0  0  0
   72.6879   55.5752   44.3677 C   0  0  0  0  0  0  0  0  0  0  0  0
   73.2639   56.8135   40.7919 C   0  0  0  0  0  0  0  0  0  0  0  0
   72.8088   55.9383   41.8738 N   0  0  0  0  0  0  0  0  0  0  0  0
  1 14  1  0
  1 15  1  0
  1 19  1  0
  2  8  1  0
  2 13  1  0
  3 20  1  0
  4  9  2  0
  5  6  1  0
  5  9  1  0
  6 15  1  0
  6 17  1  0
  6 18  1  0
  7 12  1  0
  8 10  1  0
  9 14  1  0
 10 16  2  0
 10 21  1  0
 11 19  1  0
 11 21  1  0
 12 20  1  0
 13 16  1  0
 15 16  1  0
 20 21  1  0
M  END
>  <ID>  (1) 
conformer_0

$$$$
