
     RDKit          3D

 20 22  0  0  0  0  0  0  0  0999 V2000
   74.0031   56.8415   41.1669 C   0  0  0  0  0  0  0  0  0  0  0  0
   73.6555   53.2988   42.0322 O   0  0  0  0  0  0  0  0  0  0  0  0
   75.3138   57.6969   41.2981 C   0  0  0  0  0  0  0  0  0  0  0  0
   75.4609   58.2216   42.6669 C   0  0  0  0  0  0  0  0  0  0  0  0
   73.8999   55.6659   42.1411 C   0  0  0  0  0  0  0  0  0  0  0  0
   73.9983   56.2770   39.7162 C   0  0  0  0  0  0  0  0  0  0  0  0
   70.8848   52.9416   45.4640 C   0  0  0  0  0  0  0  0  0  0  0  0
   68.8634   49.8986   45.4275 O   0  0  0  0  0  0  0  0  0  0  0  0
   71.2653   52.6762   43.0022 C   0  0  0  0  0  0  0  0  0  0  0  0
   73.0394   54.4929   42.5336 C   0  0  0  0  0  0  0  0  0  0  0  0
   71.6072   53.3892   44.2453 C   0  0  0  0  0  0  0  0  0  0  0  0
   74.7033   55.8918   43.4030 C   0  0  0  0  0  0  0  0  0  0  0  0
   73.9554   55.2150   44.5947 C   0  0  0  0  0  0  0  0  0  0  0  0
   69.1293   51.6825   43.8880 N   0  0  0  0  0  0  0  0  0  0  0  0
   74.9051   57.3607   43.7221 C   0  0  0  0  0  0  0  0  0  0  0  0
   69.1843   51.0875   45.1642 C   0  0  0  0  0  0  0  0  0  0  0  0
   72.8698   57.6656   41.3450 O   0  0  0  0  0  0  0  0  0  0  0  0
   70.0740   51.8278   46.0903 C   0  0  0  0  0  0  0  0  0  0  0  0
   70.3437   51.5669   43.0599 C   0  0  0  0  0  0  0  0  0  0  0  0
   72.7773   54.3896   44.0588 C   0  0  0  0  0  0  0  0  0  0  0  0
  1  3  1  0
  1  5  1  0
  1  6  1  0
  1 17  1  0
  2 10  1  0
  3  4  1  0
  4 15  1  0
  5 10  1  0
  5 12  1  0
  7 11  1  0
  7 18  1  0
  8 16  2  0
  9 11  2  0
  9 19  1  0
 10 20  1  0
 11 20  1  0
 12 13  1  0
 12 15  1  0
 13 20  1  0
 14 16  1  0
 14 19  1  0
 16 18  1  0
M  END
>  <ID>  (1) 
conformer_0

$$$$
