
     RDKit          3D

 29 34  0  0  0  0  0  0  0  0999 V2000
   72.1352   52.8605   41.5285 C   0  0  0  0  0  0  0  0  0  0  0  0
   73.3135   55.3981   47.0240 C   0  0  0  0  0  0  0  0  0  0  0  0
   74.3052   54.3989   44.0120 C   0  0  0  0  0  0  0  0  0  0  0  0
   72.4727   53.2155   39.2122 C   0  0  0  0  0  0  0  0  0  0  0  0
   70.9639   51.3539   44.8310 C   0  0  0  0  0  0  0  0  0  0  0  0
   70.6634   52.5983   43.9858 C   0  0  0  0  0  0  0  0  0  0  0  0
   71.8290   53.9130   45.7055 C   0  0  0  0  0  0  0  0  0  0  0  0
   75.0115   54.7923   45.2823 C   0  0  0  0  0  0  0  0  0  0  0  0
   72.4081   51.3507   41.4163 C   0  0  0  0  0  0  0  0  0  0  0  0
   72.6371   57.5351   41.7593 C   0  0  0  0  0  0  0  0  0  0  0  0
   68.7229   52.3861   42.5730 O   0  0  0  0  0  0  0  0  0  0  0  0
   72.2224   55.3890   45.8795 C   0  0  0  0  0  0  0  0  0  0  0  0
   72.8670   52.8590   45.5521 C   0  0  0  0  0  0  0  0  0  0  0  0
   74.1605   55.1538   42.6827 C   0  0  0  0  0  0  0  0  0  0  0  0
   73.4693   53.0819   44.1756 C   0  0  0  0  0  0  0  0  0  0  0  0
   70.9679   52.8098   39.1238 C   0  0  0  0  0  0  0  0  0  0  0  0
   69.9811   52.4130   42.6768 C   0  0  0  0  0  0  0  0  0  0  0  0
   73.9673   52.9763   46.6627 C   0  0  0  0  0  0  0  0  0  0  0  0
   73.0061   56.4594   40.8087 C   0  0  0  0  0  0  0  0  0  0  0  0
   72.2420   51.4155   45.6531 C   0  0  0  0  0  0  0  0  0  0  0  0
   74.4125   54.4264   46.6165 C   0  0  0  0  0  0  0  0  0  0  0  0
   72.0073   53.4114   44.0151 C   0  0  0  0  0  0  0  0  0  0  0  0
   70.6590   53.1876   41.5547 C   0  0  0  0  0  0  0  0  0  0  0  0
   70.7502   53.5542   46.6967 C   0  0  0  0  0  0  0  0  0  0  0  0
   72.7757   53.9290   40.5913 C   0  0  0  0  0  0  0  0  0  0  0  0
   73.2058   55.1184   41.4431 C   0  0  0  0  0  0  0  0  0  0  0  0
   74.4504   51.8701   43.9263 C   0  0  0  0  0  0  0  0  0  0  0  0
   69.9583   53.1731   40.2424 C   0  0  0  0  0  0  0  0  0  0  0  0
   74.1450   56.6732   39.8271 C   0  0  0  0  0  0  0  0  0  0  0  0
  1  9  1  0
  1 23  1  0
  1 25  1  0
  2 12  1  0
  2 21  1  0
  3  8  1  0
  3 14  1  0
  3 15  1  0
  4 16  1  0
  4 25  1  0
  5  6  1  0
  5 20  1  0
  6 17  1  0
  6 22  1  0
  7 12  1  0
  7 13  1  0
  7 22  1  0
  7 24  1  0
  8 21  1  0
 10 19  1  0
 11 17  2  0
 13 15  1  0
 13 18  1  0
 13 20  1  0
 14 26  1  0
 15 22  1  0
 15 27  1  0
 16 28  1  0
 17 23  1  0
 18 21  1  0
 19 26  1  0
 19 29  1  0
 23 28  1  0
 25 26  1  0
M  END
>  <ID>  (1) 
conformer_0

$$$$
