
     RDKit          3D

 27 29  0  0  0  0  0  0  0  0999 V2000
   73.3976   55.6671   42.6906 C   0  0  0  0  0  0  0  0  0  0  0  0
   73.1411   51.5155   40.6431 C   0  0  0  0  0  0  0  0  0  0  0  0
   72.9277   53.9857   40.9156 N   0  0  0  0  0  0  0  0  0  0  0  0
   70.4561   52.9857   41.4380 C   0  0  0  0  0  0  0  0  0  0  0  0
   73.9306   56.1666   40.2247 C   0  0  0  0  0  0  0  0  0  0  0  0
   72.5872   55.0196   43.7735 C   0  0  0  0  0  0  0  0  0  0  0  0
   71.8376   51.5638   39.9814 O   0  0  0  0  0  0  0  0  0  0  0  0
   70.8321   53.6799   45.1358 C   0  0  0  0  0  0  0  0  0  0  0  0
   71.4871   53.9150   43.8637 N   0  0  0  0  0  0  0  0  0  0  0  0
   74.8563   52.8546   41.9435 C   0  0  0  0  0  0  0  0  0  0  0  0
   74.1953   57.2583   44.3039 C   0  0  0  0  0  0  0  0  0  0  0  0
   73.3664   52.7342   41.5575 C   0  0  0  0  0  0  0  0  0  0  0  0
   75.4610   51.9226   42.9220 C   0  0  0  0  0  0  0  0  0  0  0  0
   75.7138   52.6786   44.2372 C   0  0  0  0  0  0  0  0  0  0  0  0
   71.0396   52.7886   40.0620 C   0  0  0  0  0  0  0  0  0  0  0  0
   73.5417   56.5727   45.3042 C   0  0  0  0  0  0  0  0  0  0  0  0
   70.9900   52.8704   42.8848 C   0  0  0  0  0  0  0  0  0  0  0  0
   71.9993   53.9512   39.7852 C   0  0  0  0  0  0  0  0  0  0  0  0
   73.4872   55.2277   41.2516 C   0  0  0  0  0  0  0  0  0  0  0  0
   75.2964   56.5222   40.3261 O   0  0  0  0  0  0  0  0  0  0  0  0
   72.7732   55.4947   45.0197 C   0  0  0  0  0  0  0  0  0  0  0  0
   74.1155   56.7890   43.0253 C   0  0  0  0  0  0  0  0  0  0  0  0
   70.2179   52.0236   46.9679 C   0  0  0  0  0  0  0  0  0  0  0  0
   72.3358   51.8321   45.7910 O   0  0  0  0  0  0  0  0  0  0  0  0
   68.7600   51.9850   46.5942 C   0  0  0  0  0  0  0  0  0  0  0  0
   71.1635   52.4516   45.8804 C   0  0  0  0  0  0  0  0  0  0  0  0
   75.7128   53.4156   41.0895 O   0  0  0  0  0  0  0  0  0  0  0  0
  1  6  2  0
  1 19  1  0
  1 22  1  0
  2  7  1  0
  2 12  1  0
  3 12  1  0
  3 18  1  0
  3 19  1  0
  4 15  1  0
  4 17  1  0
  5 19  1  0
  5 20  1  0
  6  9  1  0
  6 21  1  0
  7 15  1  0
  8  9  1  0
  8 26  1  0
  9 17  1  0
 10 12  1  0
 10 13  1  0
 10 27  1  0
 11 16  1  0
 11 22  2  0
 13 14  1  0
 15 18  1  0
 16 21  2  0
 23 25  1  0
 23 26  1  0
 24 26  1  0
M  END
>  <ID>  (1) 
conformer_0

$$$$
