
     RDKit          3D

 31 34  0  0  0  0  0  0  0  0999 V2000
   72.4279   51.5507   42.4547 C   0  0  0  0  0  0  0  0  0  0  0  0
   71.5385   52.7400   45.2394 N   0  0  0  0  0  0  0  0  0  0  0  0
   67.9676   51.8140   44.5257 O   0  0  0  0  0  0  0  0  0  0  0  0
   73.1725   55.7158   41.5115 C   0  0  0  0  0  0  0  0  0  0  0  0
   71.2626   52.0633   43.0715 N   0  0  0  0  0  0  0  0  0  0  0  0
   70.1281   52.8155   48.9831 O   0  0  0  0  0  0  0  0  0  0  0  0
   72.4003   52.3790   46.3047 C   0  0  0  0  0  0  0  0  0  0  0  0
   75.2061   51.2924   41.2241 C   0  0  0  0  0  0  0  0  0  0  0  0
   74.8830   51.5232   42.5350 C   0  0  0  0  0  0  0  0  0  0  0  0
   69.3117   50.6629   42.6256 O   0  0  0  0  0  0  0  0  0  0  0  0
   69.2092   52.3058   44.3556 C   0  0  0  0  0  0  0  0  0  0  0  0
   70.1511   52.5341   45.4829 C   0  0  0  0  0  0  0  0  0  0  0  0
   73.5973   52.0119   46.1237 O   0  0  0  0  0  0  0  0  0  0  0  0
   69.7190   52.6187   46.7696 C   0  0  0  0  0  0  0  0  0  0  0  0
   70.5803   52.6085   47.8077 C   0  0  0  0  0  0  0  0  0  0  0  0
   72.0834   54.1997   42.8615 C   0  0  0  0  0  0  0  0  0  0  0  0
   71.9385   55.4239   40.9152 C   0  0  0  0  0  0  0  0  0  0  0  0
   73.0634   50.5850   40.2500 C   0  0  0  0  0  0  0  0  0  0  0  0
   69.9663   51.6636   43.1992 C   0  0  0  0  0  0  0  0  0  0  0  0
   71.9069   52.3880   47.5778 N   0  0  0  0  0  0  0  0  0  0  0  0
   71.7401   53.2648   43.9204 C   0  0  0  0  0  0  0  0  0  0  0  0
   73.9050   58.2822   41.3972 C   0  0  0  0  0  0  0  0  0  0  0  0
   72.2330   50.9234   41.2694 C   0  0  0  0  0  0  0  0  0  0  0  0
   74.4048   50.7969   40.2392 C   0  0  0  0  0  0  0  0  0  0  0  0
   76.4043   51.6652   40.9013 F   0  0  0  0  0  0  0  0  0  0  0  0
   71.2839   54.4845   41.7416 C   0  0  0  0  0  0  0  0  0  0  0  0
   74.0118   56.8019   39.2280 N   0  0  0  0  0  0  0  0  0  0  0  0
   73.2208   54.9830   42.7757 C   0  0  0  0  0  0  0  0  0  0  0  0
   75.6287   56.1985   41.0810 O   0  0  0  0  0  0  0  0  0  0  0  0
   74.3160   56.6883   40.7757 S   0  0  0  0  0  4  0  0  0  0  0  0
   73.6670   51.6786   43.0322 C   0  0  0  0  0  0  0  0  0  0  0  0
  1  5  1  0
  1 23  1  0
  1 31  1  0
  2  7  1  0
  2 12  1  0
  2 21  1  0
  3 11  1  0
  4 17  1  0
  4 28  1  0
  4 30  1  0
  5 19  1  0
  5 21  1  0
  6 15  2  0
  7 13  2  0
  7 20  1  0
  8  9  1  0
  8 24  2  0
  8 25  1  0
  9 31  2  0
 10 19  2  0
 11 12  1  0
 11 19  1  0
 12 14  2  0
 14 15  1  0
 15 20  1  0
 16 21  1  0
 16 26  1  0
 16 28  1  0
 17 26  1  0
 18 23  2  0
 18 24  1  0
 22 30  1  0
 27 30  1  0
 29 30  1  0
M  END
>  <ID>  (1) 
conformer_0

$$$$
