
     RDKit          3D

 16 17  0  0  0  0  0  0  0  0999 V2000
   73.9753   56.5680   39.7410 O   0  0  0  0  0  0  0  0  0  0  0  0
   71.5084   52.5647   45.0034 C   0  0  0  0  0  0  0  0  0  0  0  0
   72.2143   55.1395   40.5793 C   0  0  0  0  0  0  0  0  0  0  0  0
   71.6698   54.0891   45.1853 C   0  0  0  0  0  0  0  0  0  0  0  0
   72.1535   53.8436   42.6970 C   0  0  0  0  0  0  0  0  0  0  0  0
   72.2357   54.7163   43.9541 C   0  0  0  0  0  3  0  0  0  0  0  0
   73.1192   56.3249   40.7517 C   0  0  0  0  0  0  0  0  0  0  0  0
   72.7728   53.9000   41.2839 C   0  0  0  0  0  0  0  0  0  0  0  0
   73.5526   56.8328   43.2636 C   0  0  0  0  0  0  0  0  0  0  0  0
   70.5161   52.3867   43.8964 C   0  0  0  0  0  0  0  0  0  0  0  0
   70.9122   53.0029   42.6426 C   0  0  0  0  0  0  0  0  0  0  0  0
   69.3658   51.7479   44.0610 N   0  0  0  0  0  0  0  0  0  0  0  0
   72.9044   56.0215   44.2703 S   0  0  0  0  0  3  0  0  0  0  0  0
   73.0288   57.1046   41.9635 C   0  0  0  0  0  0  0  0  0  0  0  0
   72.9503   51.8970   44.7297 C   0  0  0  0  0  0  0  0  0  0  0  0
   71.0097   51.9055   46.3260 C   0  0  0  0  0  0  0  0  0  0  0  0
  1  7  1  0
  2  4  1  0
  2 10  1  0
  2 15  1  0
  2 16  1  0
  3  7  1  0
  3  8  1  0
  4  6  1  0
  5  6  1  0
  5  8  1  0
  5 11  1  0
  6 13  2  0
  7 14  1  0
  9 13  1  0
  9 14  1  0
 10 11  1  0
 10 12  2  0
M  END
>  <ID>  (1) 
conformer_0

$$$$
