
     RDKit          3D

 20 22  0  0  0  0  0  0  0  0999 V2000
   73.1935   53.4885   46.7736 C   0  0  0  0  0  0  0  0  0  0  0  0
   68.4841   53.8344   40.7445 C   0  0  0  0  0  0  0  0  0  0  0  0
   72.5778   55.2760   42.2701 C   0  0  0  0  0  0  0  0  0  0  0  0
   72.3354   51.6314   44.7143 C   0  0  0  0  0  0  0  0  0  0  0  0
   70.3537   52.8156   42.7207 C   0  0  0  0  0  0  0  0  0  0  0  0
   69.9370   54.1785   40.6370 C   0  0  0  0  0  0  0  0  0  0  0  0
   72.7031   55.8543   41.0346 C   0  0  0  0  0  0  0  0  0  0  0  0
   73.3431   55.2292   44.7674 C   0  0  0  0  0  0  0  0  0  0  0  0
   71.3667   53.4403   43.4791 N   0  0  0  0  0  0  0  0  0  0  0  0
   71.7684   54.1855   42.4020 C   0  0  0  0  0  0  0  0  0  0  0  0
   72.4204   54.1528   45.5598 C   0  0  0  0  0  0  0  0  0  0  0  0
   74.0334   57.5533   41.9091 C   0  0  0  0  0  0  0  0  0  0  0  0
   73.4068   56.9973   40.8360 C   0  0  0  0  0  0  0  0  0  0  0  0
   70.8103   53.6792   41.5743 N   0  0  0  0  0  0  0  0  0  0  0  0
   70.3190   54.8396   39.6143 O   0  0  0  0  0  0  0  0  0  0  0  0
   73.9801   56.9821   43.1469 C   0  0  0  0  0  0  0  0  0  0  0  0
   74.2409   55.9778   45.9000 C   0  0  0  0  0  0  0  0  0  0  0  0
   73.2675   55.8021   43.3844 C   0  0  0  0  0  0  0  0  0  0  0  0
   71.2800   54.7614   45.9437 O   0  0  0  0  0  0  0  0  0  0  0  0
   72.0581   53.1019   44.5578 N   0  0  0  0  0  0  0  0  0  0  0  0
  1 11  1  0
  2  6  1  0
  3  7  2  0
  3 10  1  0
  3 18  1  0
  4 20  1  0
  5  9  1  0
  5 14  1  0
  6 14  1  0
  6 15  2  0
  7 13  1  0
  8 11  1  0
  8 17  1  0
  8 18  1  0
  9 10  1  0
  9 20  1  0
 10 14  1  0
 11 19  1  0
 11 20  1  0
 12 13  2  0
 12 16  1  0
 16 18  2  0
M  END
>  <ID>  (1) 
conformer_0

$$$$
