
     RDKit          3D

 26 27  0  0  0  0  0  0  0  0999 V2000
   70.7776   53.7418   46.1667 C   0  0  0  0  0  0  0  0  0  0  0  0
   73.2472   53.2369   46.4510 C   0  0  0  0  0  0  0  0  0  0  0  0
   73.4352   57.3510   43.6110 C   0  0  0  0  0  0  0  0  0  0  0  0
   73.6241   51.2984   41.2237 C   0  0  0  0  0  0  0  0  0  0  0  0
   71.5912   52.7265   39.7835 C   0  0  0  0  0  0  0  0  0  0  0  0
   72.9065   54.3560   41.1535 C   0  0  0  0  0  0  0  0  0  0  0  0
   70.3440   53.5755   41.8335 C   0  0  0  0  0  0  0  0  0  0  0  0
   71.9907   53.1215   45.6794 C   0  0  0  0  0  0  0  0  0  0  0  0
   73.8596   52.1501   46.6269 O   0  0  0  0  0  0  0  0  0  0  0  0
   69.9216   51.4001   46.2175 C   0  0  0  0  0  0  0  0  0  0  0  0
   72.3230   52.7759   44.3104 C   0  0  0  0  0  0  0  0  0  0  0  0
   73.6681   54.4322   46.6913 O   0  0  0  0  0  0  0  0  0  0  0  0
   73.5900   57.8199   41.0961 C   0  0  0  0  0  0  0  0  0  0  0  0
   70.1453   52.6599   47.0969 C   0  0  0  0  0  0  0  0  0  0  0  0
   73.2186   58.2040   42.4353 C   0  0  0  0  0  0  0  0  0  0  0  0
   73.4005   53.6718   43.7786 C   0  0  0  0  0  0  0  0  0  0  0  0
   73.6066   56.4168   40.7815 C   0  0  0  0  0  0  0  0  0  0  0  0
   74.3117   55.9814   39.7518 O   0  0  0  0  0  0  0  0  0  0  0  0
   72.6656   55.6672   41.5025 O   0  0  0  0  0  0  0  0  0  0  0  0
   72.6277   52.1585   42.0057 C   0  0  0  0  0  0  0  0  0  0  0  0
   70.3961   51.0854   41.3138 C   0  0  0  0  0  0  0  0  0  0  0  0
   72.7362   53.7327   39.8002 C   0  0  0  0  0  0  0  0  0  0  0  0
   72.2192   51.6767   43.3934 C   0  0  0  0  0  0  0  0  0  0  0  0
   72.4554   50.2402   43.6954 C   0  0  0  0  0  0  0  0  0  0  0  0
   71.2298   52.4129   41.2624 C   0  0  0  0  0  0  0  0  0  0  0  0
   73.3280   53.5035   42.2818 C   0  0  0  0  0  0  0  0  0  0  0  0
  1  8  1  0
  1 14  1  0
  2  8  1  0
  2  9  2  0
  2 12  1  0
  3 15  1  0
  4 20  1  0
  5 22  1  0
  5 25  1  0
  6 19  1  0
  6 22  1  0
  6 26  1  0
  7 25  1  0
  8 11  1  0
 10 14  1  0
 11 16  1  0
 11 23  1  0
 13 15  1  0
 13 17  1  0
 16 26  1  0
 17 18  2  0
 17 19  1  0
 20 23  1  0
 20 25  1  0
 20 26  1  0
 21 25  1  0
 23 24  1  0
M  END
>  <ID>  (1) 
conformer_0

$$$$
