
     RDKit          3D

 21 24  0  0  0  0  0  0  0  0999 V2000
   69.6413   50.9795   42.1855 C   0  0  0  0  0  0  0  0  0  0  0  0
   72.0393   54.7988   39.6007 C   0  0  0  0  0  0  0  0  0  0  0  0
   74.7650   53.8235   40.8307 C   0  0  0  0  0  0  0  0  0  0  0  0
   71.0403   52.2975   44.7265 C   0  0  0  0  0  0  0  0  0  0  0  0
   71.3068   52.7403   42.3182 C   0  0  0  0  0  0  0  0  0  0  0  0
   70.0774   51.5664   45.6354 C   0  0  0  0  0  0  0  0  0  0  0  0
   75.6047   55.6802   43.5862 C   0  0  0  0  0  0  0  0  0  0  0  0
   70.3380   51.8272   43.3652 C   0  0  0  0  0  0  0  0  0  0  0  0
   73.3080   57.6091   41.2002 C   0  0  0  0  0  0  0  0  0  0  0  0
   72.5692   53.2886   43.0619 C   0  0  0  0  0  0  0  0  0  0  0  0
   74.5424   55.6348   42.5608 C   0  0  0  0  0  0  0  0  0  0  0  0
   72.1896   56.6620   41.4072 C   0  0  0  0  0  0  0  0  0  0  0  0
   72.2171   53.0830   44.4731 C   0  0  0  0  0  0  0  0  0  0  0  0
   73.1004   53.6966   45.2741 O   0  0  0  0  0  0  0  0  0  0  0  0
   75.0526   55.1791   44.8479 C   0  0  0  0  0  0  0  0  0  0  0  0
   70.2641   53.8077   41.8209 C   0  0  0  0  0  0  0  0  0  0  0  0
   73.8743   54.8236   41.6124 C   0  0  0  0  0  0  0  0  0  0  0  0
   69.1217   51.2475   44.4482 C   0  0  0  0  0  0  0  0  0  0  0  0
   73.7817   54.6190   44.5524 C   0  0  0  0  0  0  0  0  0  0  0  0
   73.6215   54.4767   43.0899 C   0  0  0  0  0  0  0  0  0  0  0  0
   72.5537   55.2357   40.9531 C   0  0  0  0  0  0  0  0  0  0  0  0
  1  8  1  0
  2 21  1  0
  3 17  1  0
  4  6  1  0
  4  8  1  0
  4 13  2  0
  5  8  1  0
  5 10  1  0
  5 16  1  0
  6 18  1  0
  7 11  1  0
  7 15  1  0
  8 18  1  0
  9 12  1  0
 10 13  1  0
 10 20  1  0
 11 17  1  0
 12 21  1  0
 13 14  1  0
 14 19  1  0
 15 19  1  0
 17 20  1  0
 17 21  1  0
 19 20  1  0
M  END
>  <ID>  (1) 
conformer_0

$$$$
