
     RDKit          3D

 24 28  0  0  0  0  0  0  0  0999 V2000
   71.7781   51.9996   44.8662 C   0  0  0  0  0  0  0  0  0  0  0  0
   69.3045   52.0953   44.7761 C   0  0  0  0  0  0  0  0  0  0  0  0
   75.2395   55.3687   39.8362 O   0  0  0  0  0  0  0  0  0  0  0  0
   70.6719   52.3668   43.7977 C   0  0  0  0  0  0  0  0  0  0  0  0
   72.7641   54.1475   43.2461 C   0  0  0  0  0  0  0  0  0  0  0  0
   71.6663   53.1551   42.7671 C   0  0  0  0  0  0  0  0  0  0  0  0
   70.1007   51.1056   42.9034 C   0  0  0  0  0  0  0  0  0  0  0  0
   73.7751   55.1691   45.1815 O   0  0  0  0  0  0  0  0  0  0  0  0
   71.5964   53.2252   40.2932 C   0  0  0  0  0  0  0  0  0  0  0  0
   72.8010   55.5610   42.6466 C   0  0  0  0  0  0  0  0  0  0  0  0
   70.7745   53.3348   41.5084 C   0  0  0  0  0  0  0  0  0  0  0  0
   72.2280   53.3556   45.4723 C   0  0  0  0  0  0  0  0  0  0  0  0
   71.8364   53.4749   46.8786 C   0  0  0  0  0  0  0  0  0  0  0  0
   72.5874   55.3273   41.1520 C   0  0  0  0  0  0  0  0  0  0  0  0
   73.0797   57.0022   42.7259 C   0  0  0  0  0  0  0  0  0  0  0  0
   72.8931   53.9758   40.5093 C   0  0  0  0  0  0  0  0  0  0  0  0
   74.3803   53.0302   44.6207 O   0  0  0  0  0  0  0  0  0  0  0  0
   73.1685   57.6217   41.3790 C   0  0  0  0  0  0  0  0  0  0  0  0
   69.6733   51.8062   46.2795 C   0  0  0  0  0  0  0  0  0  0  0  0
   74.0738   56.0075   39.2646 C   0  0  0  0  0  0  0  0  0  0  0  0
   70.3273   53.0733   46.9478 C   0  0  0  0  0  0  0  0  0  0  0  0
   73.3302   53.9700   44.6361 C   0  0  0  0  0  0  0  0  0  0  0  0
   73.1094   56.5066   40.3732 C   0  0  0  0  0  0  0  0  0  0  0  0
   69.1083   50.6918   44.0346 C   0  0  0  0  0  0  0  0  0  0  0  0
  1  4  1  0
  1 12  1  0
  2  4  1  0
  2 19  1  0
  2 24  1  0
  3 20  1  0
  4  6  1  0
  4  7  1  0
  5  6  1  0
  5 10  1  0
  5 22  1  0
  6 11  1  0
  7 24  1  0
  8 22  1  0
  9 11  1  0
  9 16  1  0
 10 14  1  0
 10 15  1  0
 12 13  1  0
 12 22  1  0
 13 21  1  0
 14 16  1  0
 14 23  1  0
 15 18  1  0
 17 22  1  0
 18 23  1  0
 19 21  1  0
 20 23  1  0
M  END
>  <ID>  (1) 
conformer_0

$$$$
