
     RDKit          3D

 19 21  0  0  0  0  0  0  0  0999 V2000
   74.5914   56.2856   41.6619 C   0  0  0  0  0  0  0  0  0  0  0  0
   72.5581   53.7303   44.1180 C   0  0  0  0  0  0  0  0  0  0  0  0
   72.6918   53.8787   45.5347 C   0  0  0  0  0  0  0  0  0  0  0  0
   71.7889   53.1329   46.2974 C   0  0  0  0  0  0  0  0  0  0  0  0
   71.3309   53.2990   43.5765 C   0  0  0  0  0  0  0  0  0  0  0  0
   71.2431   55.6974   40.1705 O   0  0  0  0  0  0  0  0  0  0  0  0
   73.5973   55.2058   39.5284 C   0  0  0  0  0  0  0  0  0  0  0  0
   74.0673   55.0373   40.9386 C   0  0  0  0  0  0  0  0  0  0  0  0
   72.1090   54.8650   39.3856 C   0  0  0  0  0  0  0  0  0  0  0  0
   73.6889   54.0142   43.2523 C   0  0  0  0  0  0  0  0  0  0  0  0
   73.6952   56.9357   42.7557 C   0  0  0  0  0  0  0  0  0  0  0  0
   71.1156   53.1682   42.1771 N   0  0  0  0  0  0  0  0  0  0  0  0
   69.4892   52.2371   46.5560 N   0  0  0  0  0  0  0  0  0  0  0  0
   70.3281   52.8282   44.4112 C   0  0  0  0  0  0  0  0  0  0  0  0
   73.2436   54.1980   41.8311 N   0  0  0  0  0  0  0  0  0  0  0  0
   70.5220   52.8565   45.7772 C   0  0  0  0  0  0  0  0  0  0  0  0
   74.0024   56.5028   38.8998 C   0  0  0  0  0  0  0  0  0  0  0  0
   72.1989   53.3611   41.3395 C   0  0  0  0  0  0  0  0  0  0  0  0
   71.9742   53.3598   39.8515 C   0  0  0  0  0  0  0  0  0  0  0  0
  1  8  1  0
  1 11  1  0
  2  3  1  0
  2  5  2  0
  2 10  1  0
  3  4  1  0
  4 16  1  0
  5 12  1  0
  5 14  1  0
  6  9  1  0
  7  8  1  0
  7  9  1  0
  7 17  1  0
  8 15  1  0
  9 19  1  0
 10 15  1  0
 12 18  2  0
 13 16  1  0
 14 16  2  0
 15 18  1  0
 18 19  1  0
M  END
>  <ID>  (1) 
conformer_0

$$$$
