
     RDKit          3D

 16 16  0  0  0  0  0  0  0  0999 V2000
   70.5363   52.2661   45.9193 C   0  0  0  0  0  0  0  0  0  0  0  0
   72.7010   53.7322   43.1135 C   0  0  0  0  0  0  0  0  0  0  0  0
   72.4272   52.9810   44.4310 C   0  0  0  0  0  0  0  0  0  0  0  0
   73.3991   54.9165   40.7120 C   0  0  0  0  0  0  0  0  0  0  0  0
   73.8691   57.9832   42.7981 C   0  0  0  0  0  0  0  0  0  0  0  0
   73.7920   57.0447   41.7252 N   0  0  0  0  0  0  0  0  0  0  0  0
   72.6584   52.9978   41.9447 C   0  0  0  0  0  0  0  0  0  0  0  0
   73.4192   55.6745   41.8499 C   0  0  0  0  0  0  0  0  0  0  0  0
   73.0384   52.7643   39.5268 C   0  0  0  0  0  0  0  0  0  0  0  0
   73.0189   53.6092   40.7859 C   0  0  0  0  0  0  0  0  0  0  0  0
   69.5640   52.5346   47.0169 C   0  0  0  0  0  0  0  0  0  0  0  0
   71.1657   53.4276   45.1702 C   0  0  0  0  0  0  0  0  0  0  0  0
   70.0790   51.2082   44.9398 C   0  0  0  0  0  0  0  0  0  0  0  0
   73.0783   55.0737   43.0682 C   0  0  0  0  0  0  0  0  0  0  0  0
   74.1124   57.5996   40.4015 C   0  0  0  0  0  0  0  0  0  0  0  0
   73.1061   55.8175   44.4150 C   0  0  0  0  0  0  0  0  0  0  0  0
  1 11  1  0
  1 12  1  0
  1 13  1  0
  2  3  1  0
  2  7  2  0
  2 14  1  0
  3 12  1  0
  4  8  1  0
  4 10  2  0
  5  6  1  0
  6  8  1  0
  6 15  1  0
  7 10  1  0
  8 14  2  0
  9 10  1  0
 14 16  1  0
M  END
>  <ID>  (1) 
conformer_0

$$$$
