
     RDKit          3D

 15 15  0  0  0  0  0  0  0  0999 V2000
   71.6109   51.8841   45.7789 O   0  0  0  0  0  0  0  0  0  0  0  0
   71.0962   54.1623   46.0533 C   0  0  0  0  0  0  0  0  0  0  0  0
   72.5506   54.4653   41.2787 C   0  0  0  0  0  0  0  0  0  0  0  0
   71.0612   54.5264   40.8892 C   0  0  0  0  0  0  0  0  0  0  0  0
   72.6501   54.9669   42.7250 C   0  0  0  0  0  0  0  0  0  0  0  0
   69.6200   52.5655   45.1189 O   0  0  0  0  0  0  0  0  0  0  0  0
   73.3359   55.1582   40.1357 C   0  0  0  0  0  0  0  0  0  0  0  0
   73.3589   56.1296   43.0259 C   0  0  0  0  0  0  0  0  0  0  0  0
   71.9636   54.8056   45.0262 C   0  0  0  0  0  0  0  0  0  0  0  0
   73.3764   56.6134   44.3184 C   0  0  0  0  0  0  0  0  0  0  0  0
   74.1599   53.9493   39.5583 C   0  0  0  0  0  0  0  0  0  0  0  0
   73.1598   53.0593   41.1950 C   0  0  0  0  0  0  0  0  0  0  0  0
   71.9969   54.3306   43.7473 C   0  0  0  0  0  0  0  0  0  0  0  0
   72.7075   55.9623   45.3313 C   0  0  0  0  0  0  0  0  0  0  0  0
   70.7179   52.7795   45.6443 C   0  0  0  0  0  0  0  0  0  0  0  0
  1 15  2  0
  2  9  1  0
  2 15  1  0
  3  4  1  0
  3  5  1  0
  3  7  1  0
  3 12  1  0
  5  8  2  0
  5 13  1  0
  6 15  1  0
  7 11  1  0
  8 10  1  0
  9 13  2  0
  9 14  1  0
 10 14  2  0
M  END
>  <ID>  (1) 
conformer_0

$$$$
