
     RDKit          3D

 20 21  0  0  0  0  0  0  0  0999 V2000
   71.1663   52.6828   41.7633 N   0  0  0  0  0  0  0  0  0  0  0  0
   70.6870   52.1695   43.0898 C   0  0  0  0  0  0  0  0  0  0  0  0
   71.6373   54.9530   40.9094 C   0  0  0  0  0  0  0  0  0  0  0  0
   72.0152   51.7169   45.9664 C   0  0  0  0  0  0  0  0  0  0  0  0
   72.7051   57.1615   41.8243 C   0  0  0  0  0  0  0  0  0  0  0  0
   71.6044   53.9600   41.9016 C   0  0  0  0  0  0  0  0  0  0  0  0
   73.6503   58.2126   41.6577 C   0  0  0  0  0  0  0  0  0  0  0  0
   73.5434   55.8913   39.8787 C   0  0  0  0  0  0  0  0  0  0  0  0
   73.1702   51.3977   46.2442 O   0  0  0  0  0  0  0  0  0  0  0  0
   71.3713   53.1361   44.0176 C   0  0  0  0  0  0  0  0  0  0  0  0
   71.4883   53.0449   45.4897 C   0  0  0  0  0  0  0  0  0  0  0  0
   74.3834   58.2262   40.3756 C   0  0  0  0  0  0  0  0  0  0  0  0
   69.3627   52.2380   43.1449 O   0  0  0  0  0  0  0  0  0  0  0  0
   74.4408   56.9778   39.6351 C   0  0  0  0  0  0  0  0  0  0  0  0
   71.0834   50.6769   43.3141 C   0  0  0  0  0  0  0  0  0  0  0  0
   70.1170   53.0468   46.0917 C   0  0  0  0  0  0  0  0  0  0  0  0
   72.3018   54.2158   46.0491 C   0  0  0  0  0  0  0  0  0  0  0  0
   73.6281   54.3822   45.4486 C   0  0  0  0  0  0  0  0  0  0  0  0
   71.7511   54.2344   43.2469 N   0  0  0  0  0  0  0  0  0  0  0  0
   72.6076   56.0205   40.9897 C   0  0  0  0  0  0  0  0  0  0  0  0
  1  2  1  0
  1  6  2  0
  2 10  1  0
  2 13  1  0
  2 15  1  0
  3  6  1  0
  3 20  1  0
  4  9  2  0
  4 11  1  0
  5  7  1  0
  5 20  2  0
  6 19  1  0
  7 12  1  0
  8 14  2  0
  8 20  1  0
 10 11  1  0
 10 19  1  0
 11 16  1  0
 11 17  1  0
 12 14  1  0
 17 18  1  0
M  END
>  <ID>  (1) 
conformer_0

$$$$
