
     RDKit          3D

 20 23  0  0  0  0  0  0  0  0999 V2000
   73.8697   56.7070   42.1167 C   0  0  0  0  0  0  0  0  0  0  0  0
   70.3651   50.9470   43.4929 C   0  0  0  0  0  0  0  0  0  0  0  0
   71.0455   52.8007   42.8220 N   0  0  0  0  0  0  0  0  0  0  0  0
   72.3735   54.7810   42.5908 C   0  0  0  0  0  0  0  0  0  0  0  0
   73.7628   56.8499   43.5615 C   0  0  0  0  0  0  0  0  0  0  0  0
   71.4421   53.8702   42.0075 C   0  0  0  0  0  0  0  0  0  0  0  0
   72.5818   54.8088   43.9898 C   0  0  0  0  0  0  0  0  0  0  0  0
   72.9834   55.3037   40.2192 C   0  0  0  0  0  0  0  0  0  0  0  0
   71.6353   54.9040   39.8057 C   0  0  0  0  0  0  0  0  0  0  0  0
   71.6904   53.7197   46.3122 C   0  0  0  0  0  0  0  0  0  0  0  0
   74.6718   57.4291   41.0291 C   0  0  0  0  0  0  0  0  0  0  0  0
   70.8505   51.5858   44.5421 N   0  0  0  0  0  0  0  0  0  0  0  0
   70.9434   53.9982   40.6802 C   0  0  0  0  0  0  0  0  0  0  0  0
   73.0033   55.6555   41.6566 C   0  0  0  0  0  0  0  0  0  0  0  0
   71.2925   52.7350   44.1156 C   0  0  0  0  0  0  0  0  0  0  0  0
   70.4859   51.6901   42.4525 C   0  0  0  0  0  0  0  0  0  0  0  0
   72.0144   53.7560   44.8612 C   0  0  0  0  0  0  0  0  0  0  0  0
   72.7408   54.0162   47.3280 C   0  0  0  0  0  0  0  0  0  0  0  0
   70.2950   53.4955   46.7256 C   0  0  0  0  0  0  0  0  0  0  0  0
   73.1441   56.0009   44.4572 C   0  0  0  0  0  0  0  0  0  0  0  0
  1  5  1  0
  1 11  1  0
  1 14  2  0
  2 12  1  0
  2 16  1  0
  3  6  1  0
  3 15  1  0
  3 16  1  0
  4  6  1  0
  4  7  1  0
  4 14  1  0
  5 20  2  0
  6 13  2  0
  7 17  1  0
  7 20  1  0
  8  9  1  0
  8 14  1  0
  9 13  1  0
 10 17  1  0
 10 18  1  0
 10 19  1  0
 12 15  2  0
 15 17  1  0
M  END
>  <ID>  (1) 
conformer_0

$$$$
