
     RDKit          3D

 30 34  0  0  0  0  0  0  0  0999 V2000
   69.4688   52.3789   46.1200 O   0  0  0  0  0  0  0  0  0  0  0  0
   72.3300   51.0450   43.2853 O   0  0  0  0  0  0  0  0  0  0  0  0
   72.4163   52.4145   43.6754 C   0  0  0  0  0  0  0  0  0  0  0  0
   75.6371   54.2771   44.2478 O   0  0  0  0  0  0  0  0  0  0  0  0
   73.4970   51.4233   40.2036 C   0  0  0  0  0  0  0  0  0  0  0  0
   74.3372   52.6296   42.2207 C   0  0  0  0  0  0  0  0  0  0  0  0
   73.7445   55.5613   43.1429 C   0  0  0  0  0  0  0  0  0  0  0  0
   74.2526   54.3769   44.0671 C   0  0  0  0  0  0  0  0  0  0  0  0
   69.1955   53.8441   41.6803 C   0  0  0  0  0  0  0  0  0  0  0  0
   72.8343   57.7065   41.6834 C   0  0  0  0  0  0  0  0  0  0  0  0
   73.6458   52.4892   39.0768 C   0  0  0  0  0  0  0  0  0  0  0  0
   73.7240   56.8135   43.7205 C   0  0  0  0  0  0  0  0  0  0  0  0
   73.2805   55.4180   41.8629 C   0  0  0  0  0  0  0  0  0  0  0  0
   70.2981   53.5456   43.7851 O   0  0  0  0  0  0  0  0  0  0  0  0
   72.6001   53.8907   46.5126 C   0  0  0  0  0  0  0  0  0  0  0  0
   72.1524   51.9081   42.3805 C   0  0  0  0  0  0  0  0  0  0  0  0
   72.8171   56.4535   41.1068 C   0  0  0  0  0  0  0  0  0  0  0  0
   73.2710   52.0060   41.5805 N   0  0  0  0  0  0  0  0  0  0  0  0
   75.3976   53.2096   41.2250 C   0  0  0  0  0  0  0  0  0  0  0  0
   70.1517   53.2770   42.4787 C   0  0  0  0  0  0  0  0  0  0  0  0
   76.5189   54.2242   41.4195 C   0  0  0  0  0  0  0  0  0  0  0  0
   73.6209   54.5583   45.4858 C   0  0  0  0  0  0  0  0  0  0  0  0
   71.6241   52.8006   46.9769 C   0  0  0  0  0  0  0  0  0  0  0  0
   69.5044   53.3555   40.3405 C   0  0  0  0  0  0  0  0  0  0  0  0
   71.2404   52.8044   44.5447 C   0  0  0  0  0  0  0  0  0  0  0  0
   70.9950   52.5000   41.7510 C   0  0  0  0  0  0  0  0  0  0  0  0
   73.2830   57.8823   42.9963 C   0  0  0  0  0  0  0  0  0  0  0  0
   73.7574   53.0252   43.5344 C   0  0  0  0  0  0  0  0  0  0  0  0
   70.7114   52.4074   45.8677 C   0  0  0  0  0  0  0  0  0  0  0  0
   70.6244   52.5358   40.4338 C   0  0  0  0  0  0  0  0  0  0  0  0
  1 29  2  0
  2 16  1  0
  3 16  1  0
  3 25  1  0
  3 28  1  0
  4  8  1  0
  5 11  1  0
  5 18  1  0
  6 18  1  0
  6 19  1  0
  6 28  1  0
  7  8  1  0
  7 12  1  0
  7 13  1  0
  8 22  1  0
  8 28  1  0
  9 20  1  0
  9 24  1  0
 10 17  1  0
 10 27  1  0
 12 27  2  0
 13 17  2  0
 14 20  1  0
 14 25  1  0
 15 22  2  0
 15 23  1  0
 16 18  1  0
 16 26  1  0
 19 21  1  0
 20 26  2  0
 23 29  1  0
 24 30  1  0
 25 29  1  0
 26 30  1  0
M  END
>  <ID>  (1) 
conformer_0

$$$$
