
     RDKit          3D

 31 35  0  0  0  0  0  0  0  0999 V2000
   74.0690   55.2028   39.0262 C   0  0  0  0  0  0  0  0  0  0  0  0
   70.7348   51.7614   40.4894 C   0  0  0  0  0  0  0  0  0  0  0  0
   73.2174   51.4967   46.7850 O   0  0  0  0  0  0  0  0  0  0  0  0
   73.0679   55.3168   41.3438 C   0  0  0  0  0  0  0  0  0  0  0  0
   71.3554   52.3066   45.3977 C   0  0  0  0  0  0  0  0  0  0  0  0
   71.2016   50.6703   41.3877 O   0  0  0  0  0  0  0  0  0  0  0  0
   74.5461   57.3560   41.2110 C   0  0  0  0  0  0  0  0  0  0  0  0
   70.8607   51.9253   43.9654 C   0  0  0  0  0  0  0  0  0  0  0  0
   70.4608   53.0712   41.3189 C   0  0  0  0  0  0  0  0  0  0  0  0
   71.7784   52.1081   39.4154 C   0  0  0  0  0  0  0  0  0  0  0  0
   74.4275   56.3520   43.5201 C   0  0  0  0  0  0  0  0  0  0  0  0
   72.5052   50.0641   41.1738 C   0  0  0  0  0  0  0  0  0  0  0  0
   71.0236   52.8894   42.7563 C   0  0  0  0  0  0  0  0  0  0  0  0
   74.1735   56.1132   42.0265 C   0  0  0  0  0  0  0  0  0  0  0  0
   74.0354   55.7337   44.9005 C   0  0  0  0  0  0  0  0  0  0  0  0
   72.2507   53.5825   39.6664 C   0  0  0  0  0  0  0  0  0  0  0  0
   73.0084   51.3088   39.0503 C   0  0  0  0  0  0  0  0  0  0  0  0
   69.4975   51.6160   44.0433 O   0  0  0  0  0  0  0  0  0  0  0  0
   71.6141   55.2867   41.3488 O   0  0  0  0  0  0  0  0  0  0  0  0
   72.8214   52.1614   45.7556 C   0  0  0  0  0  0  0  0  0  0  0  0
   74.4294   54.4676   45.6475 C   0  0  0  0  0  0  0  0  0  0  0  0
   69.0728   53.2372   41.4446 O   0  0  0  0  0  0  0  0  0  0  0  0
   74.9295   53.7876   43.0396 C   0  0  0  0  0  0  0  0  0  0  0  0
   73.6272   53.3172   43.6770 C   0  0  0  0  0  0  0  0  0  0  0  0
   70.9155   53.7602   45.7100 C   0  0  0  0  0  0  0  0  0  0  0  0
   73.7406   53.1875   45.1948 C   0  0  0  0  0  0  0  0  0  0  0  0
   71.0392   54.2290   40.4440 C   0  0  0  0  0  0  0  0  0  0  0  0
   74.1320   57.8830   43.8090 C   0  0  0  0  0  0  0  0  0  0  0  0
   73.5916   50.7515   40.3766 C   0  0  0  0  0  0  0  0  0  0  0  0
   75.2955   55.2053   42.5457 C   0  0  0  0  0  0  0  0  0  0  0  0
   73.5242   54.3485   40.1907 C   0  0  0  0  0  0  0  0  0  0  0  0
  1 31  1  0
  2  6  1  0
  2  9  1  0
  2 10  1  0
  3 20  1  0
  4 14  1  0
  4 19  1  0
  4 31  1  0
  5  8  1  0
  5 20  1  0
  5 25  1  0
  6 12  1  0
  7 14  1  0
  8 13  1  0
  8 18  1  0
  9 13  1  0
  9 22  1  0
  9 27  1  0
 10 16  1  0
 10 17  1  0
 11 14  1  0
 11 15  1  0
 11 28  1  0
 12 29  1  0
 14 30  1  0
 15 21  1  0
 16 27  1  0
 16 31  1  0
 17 29  1  0
 19 27  1  0
 20 26  1  0
 21 26  1  0
 23 24  1  0
 23 30  1  0
 24 26  1  0
M  END
>  <ID>  (1) 
conformer_0

$$$$
