
     RDKit          3D

 27 30  0  0  0  0  0  0  0  0999 V2000
   69.7219   52.5706   41.2919 C   0  0  0  0  0  0  0  0  0  0  0  0
   70.9902   52.2353   43.7766 C   0  0  0  0  0  0  0  0  0  0  0  0
   72.7865   52.5551   46.6416 O   0  0  0  0  0  0  0  0  0  0  0  0
   73.3385   55.9089   43.5544 C   0  0  0  0  0  0  0  0  0  0  0  0
   73.0280   54.4739   43.6392 C   0  0  0  0  0  0  0  0  0  0  0  0
   70.2042   50.1677   41.2019 C   0  0  0  0  0  0  0  0  0  0  0  0
   74.7862   55.0098   38.9659 C   0  0  0  0  0  0  0  0  0  0  0  0
   69.3513   50.1144   42.4600 C   0  0  0  0  0  0  0  0  0  0  0  0
   73.1672   56.6502   44.5987 O   0  0  0  0  0  0  0  0  0  0  0  0
   69.7965   51.6598   44.3796 C   0  0  0  0  0  0  0  0  0  0  0  0
   73.6480   56.4489   42.2382 C   0  0  0  0  0  0  0  0  0  0  0  0
   72.1167   52.6048   41.6234 C   0  0  0  0  0  0  0  0  0  0  0  0
   74.3548   55.9812   39.9421 C   0  0  0  0  0  0  0  0  0  0  0  0
   72.5800   54.0796   44.9631 N   0  0  0  0  0  0  0  0  0  0  0  0
   74.0029   58.1722   40.6465 C   0  0  0  0  0  0  0  0  0  0  0  0
   70.8080   52.4798   42.3662 C   0  0  0  0  0  0  0  0  0  0  0  0
   70.6545   49.0940   40.6331 O   0  0  0  0  0  0  0  0  0  0  0  0
   73.9210   55.5460   41.2233 C   0  0  0  0  0  0  0  0  0  0  0  0
   72.9071   53.7331   42.3413 C   0  0  0  0  0  0  0  0  0  0  0  0
   68.8879   51.2320   43.4124 O   0  0  0  0  0  0  0  0  0  0  0  0
   74.3699   57.2919   39.6984 N   0  0  0  0  0  0  0  0  0  0  0  0
   73.7881   54.2079   41.3501 N   0  0  0  0  0  0  0  0  0  0  0  0
   70.5292   53.0636   46.2969 C   0  0  0  0  0  0  0  0  0  0  0  0
   70.1521   51.3886   40.3822 N   0  0  0  0  0  0  0  0  0  0  0  0
   73.6755   57.7880   41.9198 C   0  0  0  0  0  0  0  0  0  0  0  0
   72.0049   53.2347   45.9585 C   0  0  0  0  0  0  0  0  0  0  0  0
   69.8312   51.7104   45.8785 C   0  0  0  0  0  0  0  0  0  0  0  0
  1 16  1  0
  1 24  1  0
  2 10  1  0
  2 16  1  0
  3 26  2  0
  4  5  1  0
  4  9  1  0
  4 11  2  0
  5 14  1  0
  5 19  1  0
  6  8  1  0
  6 17  2  0
  6 24  1  0
  7 13  1  0
  8 20  1  0
 10 20  1  0
 10 27  1  0
 11 18  1  0
 11 25  1  0
 12 16  1  0
 12 19  1  0
 13 18  1  0
 13 21  2  0
 14 26  1  0
 15 21  1  0
 15 25  2  0
 18 22  1  0
 19 22  1  0
 23 26  1  0
 23 27  1  0
M  END
>  <ID>  (1) 
conformer_0

$$$$
