
     RDKit          3D

 31 37  0  0  0  0  0  0  0  0999 V2000
   73.7704   55.3540   45.4860 C   0  0  0  0  0  0  0  0  0  0  0  0
   71.8518   52.4193   39.9966 C   0  0  0  0  0  0  0  0  0  0  0  0
   73.4379   53.8642   45.2879 C   0  0  0  0  0  0  0  0  0  0  0  0
   74.7696   53.1826   45.0253 C   0  0  0  0  0  0  0  0  0  0  0  0
   71.3932   53.3973   46.3558 C   0  0  0  0  0  0  0  0  0  0  0  0
   73.7409   55.7169   40.2134 C   0  0  0  0  0  0  0  0  0  0  0  0
   69.5469   51.3649   45.7681 C   0  0  0  0  0  0  0  0  0  0  0  0
   73.3271   51.4450   42.6216 C   0  0  0  0  0  0  0  0  0  0  0  0
   73.2747   56.1289   41.4823 C   0  0  0  0  0  0  0  0  0  0  0  0
   72.7206   53.8433   46.6615 C   0  0  0  0  0  0  0  0  0  0  0  0
   73.4793   50.9600   41.2368 C   0  0  0  0  0  0  0  0  0  0  0  0
   75.9094   52.9641   42.9472 O   0  0  0  0  0  0  0  0  0  0  0  0
   69.2049   52.3510   42.4131 C   0  0  0  0  0  0  0  0  0  0  0  0
   70.0746   52.3770   44.7065 N   0  0  0  0  0  0  0  0  0  0  0  0
   73.3791   52.9421   43.0664 C   0  0  0  0  0  0  0  0  0  0  0  0
   68.8032   50.6477   44.5897 C   0  0  0  0  0  0  0  0  0  0  0  0
   74.6534   56.5097   39.5629 C   0  0  0  0  0  0  0  0  0  0  0  0
   72.6766   55.1996   42.2827 C   0  0  0  0  0  0  0  0  0  0  0  0
   72.2662   50.9808   40.3793 C   0  0  0  0  0  0  0  0  0  0  0  0
   73.3249   54.4715   39.6505 C   0  0  0  0  0  0  0  0  0  0  0  0
   73.4791   57.4262   41.9669 C   0  0  0  0  0  0  0  0  0  0  0  0
   74.7020   51.0164   40.6987 O   0  0  0  0  0  0  0  0  0  0  0  0
   74.3694   58.1918   41.3308 C   0  0  0  0  0  0  0  0  0  0  0  0
   74.8193   53.1103   43.5638 C   0  0  0  0  0  0  0  0  0  0  0  0
   71.3930   52.7534   45.0373 C   0  0  0  0  0  0  0  0  0  0  0  0
   72.8541   53.8739   41.9513 C   0  0  0  0  0  0  0  0  0  0  0  0
   73.0835   55.2923   46.8412 C   0  0  0  0  0  0  0  0  0  0  0  0
   74.9653   57.7378   40.1834 C   0  0  0  0  0  0  0  0  0  0  0  0
   69.2080   51.8800   43.7342 C   0  0  0  0  0  0  0  0  0  0  0  0
   72.5168   53.2505   44.3052 C   0  0  0  0  0  0  0  0  0  0  0  0
   72.7162   53.5789   40.5679 C   0  0  0  0  0  0  0  0  0  0  0  0
  1  3  1  0
  1 27  1  0
  2 19  1  0
  2 31  1  0
  3  4  1  0
  3 10  1  0
  3 30  1  0
  4 24  1  0
  5 10  1  0
  5 25  1  0
  6  9  2  0
  6 17  1  0
  6 20  1  0
  7 14  1  0
  7 16  1  0
  8 11  1  0
  8 15  1  0
  9 18  1  0
  9 21  1  0
 10 27  1  0
 11 19  1  0
 11 22  1  0
 12 24  2  0
 13 29  1  0
 14 25  1  0
 14 29  1  0
 15 24  1  0
 15 26  1  0
 15 30  1  0
 16 29  1  0
 17 28  2  0
 18 26  1  0
 20 31  1  0
 21 23  2  0
 23 28  1  0
 25 30  1  0
 26 31  1  0
M  END
>  <ID>  (1) 
conformer_0

$$$$
