
     RDKit          3D

 25 26  0  0  0  0  0  0  0  0999 V2000
   69.4523   52.3416   41.8656 C   0  0  0  0  0  0  0  0  0  0  0  0
   74.3014   57.4443   40.1277 O   0  0  0  0  0  0  0  0  0  0  0  0
   74.3670   55.8963   41.9057 C   0  0  0  0  0  0  0  0  0  0  0  0
   73.1096   51.3589   40.4696 C   0  0  0  0  0  0  0  0  0  0  0  0
   70.6323   53.5050   46.3771 O   0  0  0  0  0  0  0  0  0  0  0  0
   71.0218   54.2137   39.8748 C   0  0  0  0  0  0  0  0  0  0  0  0
   68.7392   52.1142   45.2785 O   0  0  0  0  0  0  0  0  0  0  0  0
   75.0145   56.2624   40.6127 C   0  0  0  0  0  0  0  0  0  0  0  0
   72.8511   54.1595   41.6314 C   0  0  0  0  0  0  0  0  0  0  0  0
   70.0596   51.1953   40.8877 C   0  0  0  0  0  0  0  0  0  0  0  0
   71.9003   50.3668   42.4449 C   0  0  0  0  0  0  0  0  0  0  0  0
   68.8439   51.9415   46.6445 C   0  0  0  0  0  0  0  0  0  0  0  0
   71.6621   50.9391   41.0075 C   0  0  0  0  0  0  0  0  0  0  0  0
   70.0592   52.4685   47.2359 C   0  0  0  0  0  0  0  0  0  0  0  0
   72.0459   53.4354   46.3951 C   0  0  0  0  0  0  0  0  0  0  0  0
   73.3650   56.9397   42.2010 C   0  0  0  0  0  0  0  0  0  0  0  0
   72.3105   54.0364   44.0597 C   0  0  0  0  0  0  0  0  0  0  0  0
   71.5698   53.5790   41.1552 C   0  0  0  0  0  0  0  0  0  0  0  0
   73.5016   58.0300   41.2086 C   0  0  0  0  0  0  0  0  0  0  0  0
   70.9570   53.4342   43.7262 C   0  0  0  0  0  0  0  0  0  0  0  0
   73.4201   53.6945   43.0278 C   0  0  0  0  0  0  0  0  0  0  0  0
   72.8139   54.1729   45.4477 C   0  0  0  0  0  0  0  0  0  0  0  0
   72.9605   55.7183   41.6204 C   0  0  0  0  0  0  0  0  0  0  0  0
   72.6832   52.7000   47.2193 O   0  0  0  0  0  0  0  0  0  0  0  0
   70.6770   53.1154   42.2826 C   0  0  0  0  0  0  0  0  0  0  0  0
  1 10  1  0
  1 25  1  0
  2  8  1  0
  2 19  1  0
  3  8  1  0
  3 23  1  0
  4 13  1  0
  5 14  1  0
  5 15  1  0
  6 18  1  0
  7 12  1  0
  9 18  1  0
  9 21  1  0
  9 23  1  0
 10 13  1  0
 11 13  1  0
 12 14  1  0
 15 22  1  0
 15 24  2  0
 16 19  1  0
 16 23  1  0
 17 20  1  0
 17 21  1  0
 17 22  1  0
 18 25  1  0
 20 25  2  0
M  END
>  <ID>  (1) 
conformer_0

$$$$
