
     RDKit          3D

 26 30  0  0  0  0  0  0  0  0999 V2000
   69.8099   51.9959   42.7918 C   0  0  0  0  0  0  0  0  0  0  0  0
   71.9946   54.7519   41.1569 C   0  0  0  0  0  0  0  0  0  0  0  0
   74.7955   56.1597   40.6259 C   0  0  0  0  0  0  0  0  0  0  0  0
   73.7936   56.3916   41.8214 C   0  0  0  0  0  0  0  0  0  0  0  0
   69.9314   53.1542   41.8145 C   0  0  0  0  0  0  0  0  0  0  0  0
   72.6680   51.2977   41.8766 O   0  0  0  0  0  0  0  0  0  0  0  0
   69.4444   51.4026   46.0960 C   0  0  0  0  0  0  0  0  0  0  0  0
   68.7468   52.1663   47.2084 C   0  0  0  0  0  0  0  0  0  0  0  0
   70.7171   52.1686   44.0585 C   0  0  0  0  0  0  0  0  0  0  0  0
   72.8281   57.5583   41.4606 C   0  0  0  0  0  0  0  0  0  0  0  0
   71.3224   53.3498   41.2135 C   0  0  0  0  0  0  0  0  0  0  0  0
   74.2829   55.9012   44.2030 C   0  0  0  0  0  0  0  0  0  0  0  0
   73.3152   56.2725   45.1980 O   0  0  0  0  0  0  0  0  0  0  0  0
   72.4071   55.1535   45.4854 C   0  0  0  0  0  0  0  0  0  0  0  0
   70.5805   52.3306   45.5868 C   0  0  0  0  0  0  0  0  0  0  0  0
   71.9112   51.8872   46.3563 C   0  0  0  0  0  0  0  0  0  0  0  0
   74.6136   56.8631   43.0635 C   0  0  0  0  0  0  0  0  0  0  0  0
   71.9913   52.9070   43.6053 C   0  0  0  0  0  0  0  0  0  0  0  0
   73.1781   55.0075   42.1783 C   0  0  0  0  0  0  0  0  0  0  0  0
   72.5567   55.1192   39.7731 C   0  0  0  0  0  0  0  0  0  0  0  0
   74.1043   55.2013   39.6258 C   0  0  0  0  0  0  0  0  0  0  0  0
   68.7846   53.4858   40.9447 C   0  0  0  0  0  0  0  0  0  0  0  0
   73.7723   54.6149   43.5693 C   0  0  0  0  0  0  0  0  0  0  0  0
   72.2670   52.5426   42.1709 C   0  0  0  0  0  0  0  0  0  0  0  0
   68.4233   50.9698   45.0605 C   0  0  0  0  0  0  0  0  0  0  0  0
   72.7085   53.9906   44.5078 C   0  0  0  0  0  0  0  0  0  0  0  0
  1  5  1  0
  1  9  1  0
  2 11  1  0
  2 19  1  0
  2 20  1  0
  3  4  1  0
  3 21  1  0
  4 10  1  0
  4 17  1  0
  4 19  1  0
  5 11  1  0
  5 22  1  0
  6 24  1  0
  7  8  1  0
  7 15  1  0
  7 25  1  0
  9 15  1  0
  9 18  1  0
 11 24  1  0
 12 13  1  0
 12 17  1  0
 12 23  1  0
 13 14  1  0
 14 26  1  0
 15 16  1  0
 18 24  1  0
 18 26  1  0
 19 23  1  0
 20 21  1  0
 23 26  1  0
M  END
>  <ID>  (1) 
conformer_0

$$$$
