
     RDKit          3D

 27 30  0  0  0  0  0  0  0  0999 V2000
   70.9434   54.4554   39.3031 C   0  0  0  0  0  0  0  0  0  0  0  0
   73.2273   56.1399   44.8711 O   0  0  0  0  0  0  0  0  0  0  0  0
   71.7007   53.3365   41.7330 C   0  0  0  0  0  0  0  0  0  0  0  0
   70.5101   55.1467   40.6485 C   0  0  0  0  0  0  0  0  0  0  0  0
   75.3293   53.8525   40.7941 C   0  0  0  0  0  0  0  0  0  0  0  0
   74.2956   56.0701   41.1637 C   0  0  0  0  0  0  0  0  0  0  0  0
   75.5627   56.3632   41.9790 C   0  0  0  0  0  0  0  0  0  0  0  0
   72.5685   52.7092   42.7997 C   0  0  0  0  0  0  0  0  0  0  0  0
   72.7471   54.0510   40.9784 C   0  0  0  0  0  0  0  0  0  0  0  0
   71.9031   52.4845   45.2157 C   0  0  0  0  0  0  0  0  0  0  0  0
   75.4912   55.4660   43.2153 C   0  0  0  0  0  0  0  0  0  0  0  0
   73.4601   51.5462   42.3039 C   0  0  0  0  0  0  0  0  0  0  0  0
   73.0662   55.0583   45.5685 C   0  0  0  0  0  0  0  0  0  0  0  0
   69.4311   54.1310   41.1040 C   0  0  0  0  0  0  0  0  0  0  0  0
   70.3419   52.3298   47.0174 C   0  0  0  0  0  0  0  0  0  0  0  0
   72.8283   53.6501   45.0560 C   0  0  0  0  0  0  0  0  0  0  0  0
   73.3152   53.6283   43.6647 C   0  0  0  0  0  0  0  0  0  0  0  0
   74.1271   54.5157   41.4782 C   0  0  0  0  0  0  0  0  0  0  0  0
   72.4239   51.2167   45.0275 O   0  0  0  0  0  0  0  0  0  0  0  0
   69.5966   51.7596   44.7763 O   0  0  0  0  0  0  0  0  0  0  0  0
   70.4655   52.5377   45.5600 C   0  0  0  0  0  0  0  0  0  0  0  0
   70.8586   52.9015   39.5924 C   0  0  0  0  0  0  0  0  0  0  0  0
   72.8747   55.1716   46.8044 O   0  0  0  0  0  0  0  0  0  0  0  0
   71.6978   54.7905   41.5425 C   0  0  0  0  0  0  0  0  0  0  0  0
   70.3732   52.8431   41.0716 C   0  0  0  0  0  0  0  0  0  0  0  0
   69.6681   51.8818   41.7769 O   0  0  0  0  0  0  0  0  0  0  0  0
   74.3293   54.5220   43.0385 C   0  0  0  0  0  0  0  0  0  0  0  0
  1  4  1  0
  1 22  1  0
  2 13  2  0
  3  8  1  0
  3 24  1  0
  3 25  1  0
  4 14  1  0
  4 24  1  0
  5 18  1  0
  6  7  1  0
  6 18  1  0
  7 11  1  0
  8 12  1  0
  8 17  1  0
  9 18  1  0
  9 24  1  0
 10 16  1  0
 10 19  1  0
 10 21  1  0
 11 27  1  0
 13 16  1  0
 13 23  1  0
 14 25  1  0
 15 21  1  0
 16 17  1  0
 17 27  1  0
 18 27  1  0
 20 21  1  0
 22 25  1  0
 25 26  1  0
M  END
>  <ID>  (1) 
conformer_0

$$$$
