
     RDKit          3D

 23 25  0  0  0  0  0  0  0  0999 V2000
   72.1705   52.4919   47.2978 C   0  0  0  0  0  0  0  0  0  0  0  0
   73.5287   56.1277   44.9297 C   0  0  0  0  0  0  0  0  0  0  0  0
   73.3246   55.7790   40.9150 C   0  0  0  0  0  0  0  0  0  0  0  0
   74.7270   54.7878   42.9175 C   0  0  0  0  0  0  0  0  0  0  0  0
   74.1155   56.0590   43.6130 C   0  0  0  0  0  0  0  0  0  0  0  0
   70.9125   52.0714   45.1155 C   0  0  0  0  0  0  0  0  0  0  0  0
   72.4547   53.0656   43.4075 C   0  0  0  0  0  0  0  0  0  0  0  0
   71.5260   54.1066   41.1224 C   0  0  0  0  0  0  0  0  0  0  0  0
   73.5448   53.7752   42.5584 C   0  0  0  0  0  0  0  0  0  0  0  0
   69.9426   54.2233   41.0478 C   0  0  0  0  0  0  0  0  0  0  0  0
   70.0647   53.2018   39.8009 C   0  0  0  0  0  0  0  0  0  0  0  0
   75.5538   54.8202   41.5672 C   0  0  0  0  0  0  0  0  0  0  0  0
   71.1447   52.2540   48.0158 O   0  0  0  0  0  0  0  0  0  0  0  0
   71.4487   52.6670   40.3896 C   0  0  0  0  0  0  0  0  0  0  0  0
   73.1514   51.6992   47.1037 O   0  0  0  0  0  0  0  0  0  0  0  0
   72.0715   53.1214   44.9005 C   0  0  0  0  0  0  0  0  0  0  0  0
   72.8476   57.2176   41.2504 C   0  0  0  0  0  0  0  0  0  0  0  0
   71.9733   55.1467   40.0301 C   0  0  0  0  0  0  0  0  0  0  0  0
   72.1760   53.7006   46.3687 C   0  0  0  0  0  0  0  0  0  0  0  0
   72.9197   54.4378   41.2940 C   0  0  0  0  0  0  0  0  0  0  0  0
   71.0186   51.6854   41.5445 C   0  0  0  0  0  0  0  0  0  0  0  0
   71.9508   51.7416   42.7262 C   0  0  0  0  0  0  0  0  0  0  0  0
   74.8527   55.7658   40.5487 C   0  0  0  0  0  0  0  0  0  0  0  0
  1 13  2  0
  1 15  1  0
  1 19  1  0
  2  5  1  0
  3 17  1  0
  3 20  1  0
  3 23  1  0
  4  5  1  0
  4  9  1  0
  4 12  1  0
  6 16  1  0
  7  9  1  0
  7 16  1  0
  7 22  1  0
  8 10  1  0
  8 14  1  0
  8 18  1  0
  8 20  1  0
  9 20  1  0
 10 11  1  0
 11 14  1  0
 12 23  1  0
 14 21  1  0
 16 19  1  0
 21 22  1  0
M  END
>  <ID>  (1) 
conformer_0

$$$$
