
     RDKit          3D

 16 17  0  0  0  0  0  0  0  0999 V2000
   72.8921   56.1988   43.8930 O   0  0  0  0  0  0  0  0  0  0  0  0
   73.0337   52.0709   45.5848 C   0  0  0  0  0  0  0  0  0  0  0  0
   69.9163   51.4776   43.9386 C   0  0  0  0  0  0  0  0  0  0  0  0
   70.6484   51.5076   45.2385 C   0  0  0  0  0  0  0  0  0  0  0  0
   71.9489   53.9070   44.2675 C   0  0  0  0  0  0  0  0  0  0  0  0
   72.7129   56.1324   41.4916 C   0  0  0  0  0  0  0  0  0  0  0  0
   70.3492   52.5213   42.9809 C   0  0  0  0  0  0  0  0  0  0  0  0
   71.6504   52.7845   45.3071 C   0  0  0  0  0  0  0  0  0  0  0  0
   74.2858   57.2198   40.3027 C   0  0  0  0  0  0  0  0  0  0  0  0
   69.4419   52.6463   41.8258 C   0  0  0  0  0  0  0  0  0  0  0  0
   73.6470   55.7958   40.3081 C   0  0  0  0  0  0  0  0  0  0  0  0
   71.0483   53.5655   46.5301 C   0  0  0  0  0  0  0  0  0  0  0  0
   73.0617   55.4909   42.8269 C   0  0  0  0  0  0  0  0  0  0  0  0
   73.0455   54.8121   44.2513 C   0  0  0  0  0  0  0  0  0  0  0  0
   73.2403   57.5490   41.3999 C   0  0  0  0  0  0  0  0  0  0  0  0
   71.2707   53.6670   43.0178 C   0  0  0  0  0  0  0  0  0  0  0  0
  1 13  1  0
  1 14  1  0
  2  8  1  0
  3  4  1  0
  3  7  1  0
  4  8  1  0
  5  8  1  0
  5 14  1  0
  5 16  2  0
  6 11  1  0
  6 13  1  0
  6 15  1  0
  7 10  1  0
  7 16  1  0
  8 12  1  0
  9 11  1  0
  9 15  1  0
M  END
>  <ID>  (1) 
conformer_0

$$$$
