
     RDKit          3D

 22 24  0  0  0  0  0  0  0  0999 V2000
   71.6858   52.9611   44.0743 C   0  0  0  0  0  0  0  0  0  0  0  0
   73.1855   54.2203   40.9989 N   0  0  0  0  0  0  0  0  0  0  0  0
   73.7842   55.8853   42.9110 N   0  0  0  0  0  0  0  0  0  0  0  0
   71.2393   53.4585   45.2850 C   0  0  0  0  0  0  0  0  0  0  0  0
   72.4007   53.8181   43.2208 C   0  0  0  0  0  0  0  0  0  0  0  0
   71.7542   54.6728   45.7216 C   0  0  0  0  0  0  0  0  0  0  0  0
   73.6241   57.1613   42.3546 C   0  0  0  0  0  0  0  0  0  0  0  0
   73.5079   54.1746   39.7002 C   0  0  0  0  0  0  0  0  0  0  0  0
   72.6758   57.4169   41.5169 O   0  0  0  0  0  0  0  0  0  0  0  0
   72.1389   52.1574   41.4829 C   0  0  0  0  0  0  0  0  0  0  0  0
   72.9247   55.0568   43.6214 C   0  0  0  0  0  0  0  0  0  0  0  0
   74.1815   55.4073   39.0185 C   0  0  0  0  0  0  0  0  0  0  0  0
   73.2862   53.0931   38.9309 C   0  0  0  0  0  0  0  0  0  0  0  0
   72.5816   55.4313   44.9161 C   0  0  0  0  0  0  0  0  0  0  0  0
   72.6958   51.9212   39.1851 C   0  0  0  0  0  0  0  0  0  0  0  0
   72.5950   53.4166   41.8590 C   0  0  0  0  0  0  0  0  0  0  0  0
   70.3540   52.5203   45.8467 C   0  0  0  0  0  0  0  0  0  0  0  0
   69.3573   52.7423   46.8156 C   0  0  0  0  0  0  0  0  0  0  0  0
   71.2559   51.5998   43.9914 C   0  0  0  0  0  0  0  0  0  0  0  0
   74.4805   58.0719   42.7237 O   0  0  0  0  0  0  0  0  0  0  0  0
   70.4396   51.3527   45.1470 N   0  0  0  0  0  0  0  0  0  0  0  0
   72.1415   51.4349   40.3492 C   0  0  0  0  0  0  0  0  0  0  0  0
  1  4  1  0
  1  5  2  0
  1 19  1  0
  2  8  1  0
  2 16  2  0
  3  7  1  0
  3 11  1  0
  4  6  2  0
  4 17  1  0
  5 11  1  0
  5 16  1  0
  6 14  1  0
  7  9  2  0
  7 20  1  0
  8 12  1  0
  8 13  1  0
 10 16  1  0
 10 22  2  0
 11 14  2  0
 13 15  2  0
 15 22  1  0
 17 18  1  0
 17 21  1  0
 19 21  1  0
M  END
>  <ID>  (1) 
conformer_0

$$$$
