
     RDKit          3D

 18 20  0  0  0  0  0  0  0  0999 V2000
   68.8595   52.3016   42.4207 O   0  0  0  0  0  0  0  0  0  0  0  0
   73.1733   57.3249   41.7992 C   0  0  0  0  0  0  0  0  0  0  0  0
   73.9691   56.8884   39.7818 N   0  0  0  0  0  0  0  0  0  0  0  0
   72.8745   56.0281   41.5108 C   0  0  0  0  0  0  0  0  0  0  0  0
   72.2367   55.1803   42.3871 C   0  0  0  0  0  0  0  0  0  0  0  0
   70.7815   52.4029   45.2300 C   0  0  0  0  0  0  0  0  0  0  0  0
   73.3253   55.7271   40.2757 C   0  0  0  0  0  0  0  0  0  0  0  0
   71.2399   53.3025   44.2050 C   0  0  0  0  0  0  0  0  0  0  0  0
   71.3527   54.1530   41.9415 C   0  0  0  0  0  0  0  0  0  0  0  0
   72.0921   54.7482   45.9741 C   0  0  0  0  0  0  0  0  0  0  0  0
   70.9125   52.7265   46.5607 C   0  0  0  0  0  0  0  0  0  0  0  0
   71.5705   53.8748   46.9009 C   0  0  0  0  0  0  0  0  0  0  0  0
   71.0818   53.0332   42.7955 C   0  0  0  0  0  0  0  0  0  0  0  0
   72.4291   55.3041   43.7256 O   0  0  0  0  0  0  0  0  0  0  0  0
   70.2514   51.1944   44.9300 O   0  0  0  0  0  0  0  0  0  0  0  0
   73.8683   57.8594   40.7042 C   0  0  0  0  0  0  0  0  0  0  0  0
   70.2556   51.9745   42.2344 C   0  0  0  0  0  0  0  0  0  0  0  0
   71.9103   54.4402   44.6187 C   0  0  0  0  0  0  0  0  0  0  0  0
  1 17  1  0
  2  4  1  0
  2 16  1  0
  3  7  1  0
  3 16  1  0
  4  5  1  0
  4  7  1  0
  5  9  1  0
  5 14  1  0
  6  8  2  0
  6 11  1  0
  6 15  1  0
  8 13  1  0
  8 18  1  0
  9 13  1  0
 10 12  1  0
 10 18  2  0
 11 12  2  0
 13 17  1  0
 14 18  1  0
M  END
>  <ID>  (1) 
conformer_0

$$$$
