
     RDKit          3D

 25 26  0  0  0  0  0  0  0  0999 V2000
   74.2546   55.6091   44.6167 C   0  0  0  0  0  0  0  0  0  0  0  0
   69.3854   52.0977   42.9349 N   0  0  0  0  0  0  0  0  0  0  0  0
   74.2394   56.4065   42.1604 C   0  0  0  0  0  0  0  0  0  0  0  0
   72.2123   51.2017   44.8635 O   0  0  0  0  0  0  0  0  0  0  0  0
   73.0431   55.2715   45.3421 C   0  0  0  0  0  0  0  0  0  0  0  0
   72.3874   53.9960   45.1621 N   0  0  0  0  0  0  0  0  0  0  0  0
   73.9183   55.9579   40.7456 C   0  0  0  0  0  0  0  0  0  0  0  0
   71.1260   54.0054   45.8028 C   0  0  0  0  0  0  0  0  0  0  0  0
   75.4210   56.1635   45.3176 C   0  0  0  0  0  0  0  0  0  0  0  0
   72.6801   53.8493   40.0197 C   0  0  0  0  0  0  0  0  0  0  0  0
   70.4047   54.7930   41.2771 C   0  0  0  0  0  0  0  0  0  0  0  0
   74.7501   56.1435   39.7434 O   0  0  0  0  0  0  0  0  0  0  0  0
   69.9844   51.2313   43.8163 C   0  0  0  0  0  0  0  0  0  0  0  0
   73.6403   57.5162   42.9108 O   0  0  0  0  0  0  0  0  0  0  0  0
   70.9928   51.8444   44.6840 C   0  0  0  0  0  0  0  0  0  0  0  0
   71.4677   55.6481   41.0385 C   0  0  0  0  0  0  0  0  0  0  0  0
   69.9338   49.9116   43.7267 O   0  0  0  0  0  0  0  0  0  0  0  0
   74.2560   53.6266   43.1092 C   0  0  0  0  0  0  0  0  0  0  0  0
   69.4882   52.4788   41.5261 C   0  0  0  0  0  0  0  0  0  0  0  0
   74.3704   55.2324   43.1894 C   0  0  0  0  0  0  0  0  0  0  0  0
   72.6866   55.1619   40.5552 C   0  0  0  0  0  0  0  0  0  0  0  0
   70.4977   53.4160   41.0115 C   0  0  0  0  0  0  0  0  0  0  0  0
   71.6174   52.9740   40.2548 C   0  0  0  0  0  0  0  0  0  0  0  0
   71.2088   53.3512   44.5324 C   0  0  0  0  0  0  0  0  0  0  0  0
   72.3306   56.2488   45.8380 O   0  0  0  0  0  0  0  0  0  0  0  0
  1  5  1  0
  1  9  1  0
  1 20  1  0
  2 13  1  0
  2 19  1  0
  3  7  1  0
  3 14  1  0
  3 20  1  0
  4 15  1  0
  5  6  1  0
  5 25  2  0
  6  8  1  0
  7 12  1  0
  7 21  1  0
  8 24  1  0
 10 21  1  0
 10 23  2  0
 11 16  2  0
 11 22  1  0
 13 15  1  0
 13 17  2  0
 15 24  1  0
 16 21  1  0
 18 20  1  0
 19 22  1  0
 22 23  1  0
M  END
>  <ID>  (1) 
conformer_0

$$$$
