
     RDKit          3D

 21 23  0  0  0  0  0  0  0  0999 V2000
   71.8799   52.5502   44.5978 O   0  0  0  0  0  0  0  0  0  0  0  0
   72.0336   52.9300   43.2928 C   0  0  0  0  0  0  0  0  0  0  0  0
   74.5774   55.5180   42.4142 C   0  0  0  0  0  0  0  0  0  0  0  0
   69.6224   51.4793   43.8430 C   0  0  0  0  0  0  0  0  0  0  0  0
   73.3873   54.6580   42.2055 C   0  0  0  0  0  0  0  0  0  0  0  0
   72.2060   55.2344   41.6517 C   0  0  0  0  0  0  0  0  0  0  0  0
   73.5645   51.2925   45.9034 O   0  0  0  0  0  0  0  0  0  0  0  0
   72.5027   51.8952   46.7118 C   0  0  0  0  0  0  0  0  0  0  0  0
   71.2370   52.0648   45.7857 C   0  0  0  0  0  0  0  0  0  0  0  0
   70.3890   54.1334   40.3439 C   0  0  0  0  0  0  0  0  0  0  0  0
   71.1427   54.2819   41.5763 C   0  0  0  0  0  0  0  0  0  0  0  0
   70.9101   53.3016   42.5308 N   0  0  0  0  0  0  0  0  0  0  0  0
   73.2998   53.3170   42.7647 C   0  0  0  0  0  0  0  0  0  0  0  0
   75.4923   57.7364   42.1119 O   0  0  0  0  0  0  0  0  0  0  0  0
   74.2236   57.2657   39.6298 C   0  0  0  0  0  0  0  0  0  0  0  0
   74.2676   57.0663   42.2368 C   0  0  0  0  0  0  0  0  0  0  0  0
   69.6974   52.4968   42.7105 C   0  0  0  0  0  0  0  0  0  0  0  0
   72.2250   56.4488   40.8526 C   0  0  0  0  0  0  0  0  0  0  0  0
   69.7510   51.9417   45.3320 C   0  0  0  0  0  0  0  0  0  0  0  0
   73.5535   57.5614   43.3658 O   0  0  0  0  0  0  0  0  0  0  0  0
   73.4333   57.3210   40.9400 C   0  0  0  0  0  0  0  0  0  0  0  0
  1  2  1  0
  1  9  1  0
  2 12  1  0
  2 13  1  0
  3  5  1  0
  3 16  1  0
  4 17  1  0
  4 19  1  0
  5  6  1  0
  5 13  1  0
  6 11  1  0
  6 18  1  0
  7  8  1  0
  8  9  1  0
  9 19  1  0
 10 11  1  0
 11 12  1  0
 12 17  1  0
 14 16  1  0
 15 21  1  0
 16 20  1  0
 16 21  1  0
 18 21  1  0
M  END
>  <ID>  (1) 
conformer_0

$$$$
