
     RDKit          3D

 20 22  0  0  0  0  0  0  0  0999 V2000
   73.8092   55.8416   42.2865 C   0  0  0  0  0  0  0  0  0  0  0  0
   74.1459   58.0692   42.8895 C   0  0  0  0  0  0  0  0  0  0  0  0
   74.4842   56.0409   39.4634 C   0  0  0  0  0  0  0  0  0  0  0  0
   74.2489   57.3231   40.2854 C   0  0  0  0  0  0  0  0  0  0  0  0
   72.2503   51.9687   45.6546 O   0  0  0  0  0  0  0  0  0  0  0  0
   73.1211   56.0628   43.5765 C   0  0  0  0  0  0  0  0  0  0  0  0
   74.3126   57.1226   41.7949 C   0  0  0  0  0  0  0  0  0  0  0  0
   70.1507   51.8358   44.6497 N   0  0  0  0  0  0  0  0  0  0  0  0
   70.5565   50.6796   43.7028 C   0  0  0  0  0  0  0  0  0  0  0  0
   71.2604   52.7218   45.1135 C   0  0  0  0  0  0  0  0  0  0  0  0
   73.7778   54.4412   41.8166 C   0  0  0  0  0  0  0  0  0  0  0  0
   72.5821   54.8785   44.2822 C   0  0  0  0  0  0  0  0  0  0  0  0
   70.0213   51.1915   42.3515 C   0  0  0  0  0  0  0  0  0  0  0  0
   70.6214   53.6036   46.1573 C   0  0  0  0  0  0  0  0  0  0  0  0
   71.2673   55.0554   41.3109 C   0  0  0  0  0  0  0  0  0  0  0  0
   73.5891   57.3192   44.0442 C   0  0  0  0  0  0  0  0  0  0  0  0
   72.3250   53.9759   41.6223 C   0  0  0  0  0  0  0  0  0  0  0  0
   70.3057   52.6509   42.2601 C   0  0  0  0  0  0  0  0  0  0  0  0
   71.9078   53.5521   44.0174 C   0  0  0  0  0  0  0  0  0  0  0  0
   71.7990   52.9107   42.6352 C   0  0  0  0  0  0  0  0  0  0  0  0
  1  6  1  0
  1  7  1  0
  1 11  1  0
  2  7  1  0
  2 16  1  0
  3  4  1  0
  4  7  1  0
  5 10  1  0
  6 12  1  0
  6 16  1  0
  8  9  1  0
  8 10  1  0
  9 13  1  0
 10 14  1  0
 10 19  1  0
 11 17  1  0
 12 19  2  0
 13 18  1  0
 15 17  1  0
 17 20  1  0
 18 20  1  0
 19 20  1  0
M  END
>  <ID>  (1) 
conformer_0

$$$$
