
     RDKit          3D

 23 25  0  0  0  0  0  0  0  0999 V2000
   70.0836   51.5812   44.8774 C   0  0  0  0  0  0  0  0  0  0  0  0
   69.1235   54.3250   41.1309 C   0  0  0  0  0  0  0  0  0  0  0  0
   72.0297   52.8306   44.8088 C   0  0  0  0  0  0  0  0  0  0  0  0
   73.4450   58.6899   42.8551 O   0  0  0  0  0  0  0  0  0  0  0  0
   76.0593   56.8699   41.2033 C   0  0  0  0  0  0  0  0  0  0  0  0
   73.0214   53.9054   42.8083 C   0  0  0  0  0  0  0  0  0  0  0  0
   72.0372   52.1016   46.0387 C   0  0  0  0  0  0  0  0  0  0  0  0
   71.6176   54.0377   42.2970 C   0  0  0  0  0  0  0  0  0  0  0  0
   73.1617   53.4270   44.2125 C   0  0  0  0  0  0  0  0  0  0  0  0
   70.7565   52.8064   42.6036 C   0  0  0  0  0  0  0  0  0  0  0  0
   72.9126   57.8681   41.9958 C   0  0  0  0  0  0  0  0  0  0  0  0
   74.0109   55.6754   41.2851 C   0  0  0  0  0  0  0  0  0  0  0  0
   74.9682   57.7720   40.6330 C   0  0  0  0  0  0  0  0  0  0  0  0
   68.9632   51.2341   44.4296 O   0  0  0  0  0  0  0  0  0  0  0  0
   73.6975   55.2610   42.7178 C   0  0  0  0  0  0  0  0  0  0  0  0
   71.4520   55.0939   41.3364 O   0  0  0  0  0  0  0  0  0  0  0  0
   70.8271   52.5142   44.0790 C   0  0  0  0  0  0  0  0  0  0  0  0
   73.1349   51.5228   46.4344 O   0  0  0  0  0  0  0  0  0  0  0  0
   70.2791   55.0476   40.5889 C   0  0  0  0  0  0  0  0  0  0  0  0
   71.2890   51.5679   41.8276 C   0  0  0  0  0  0  0  0  0  0  0  0
   73.6716   57.0843   40.9773 C   0  0  0  0  0  0  0  0  0  0  0  0
   75.4346   55.5133   41.0750 O   0  0  0  0  0  0  0  0  0  0  0  0
   70.7662   51.4534   46.1561 C   0  0  0  0  0  0  0  0  0  0  0  0
  1 14  2  0
  1 17  1  0
  1 23  1  0
  2 19  1  0
  3  7  1  0
  3  9  2  0
  3 17  1  0
  4 11  1  0
  5 13  1  0
  5 22  1  0
  6  8  1  0
  6  9  1  0
  6 15  1  0
  7 18  1  0
  7 23  1  0
  8 10  1  0
  8 16  1  0
 10 17  1  0
 10 20  1  0
 11 21  1  0
 12 15  1  0
 12 21  1  0
 12 22  1  0
 13 21  1  0
 16 19  1  0
M  END
>  <ID>  (1) 
conformer_0

$$$$
