
     RDKit          3D

 35 40  0  0  0  0  0  0  0  0999 V2000
   72.6302   54.1098   40.1366 C   0  0  0  0  0  0  0  0  0  0  0  0
   77.4140   54.7477   41.6130 C   0  0  0  0  0  0  0  0  0  0  0  0
   75.9125   52.3564   41.6604 C   0  0  0  0  0  0  0  0  0  0  0  0
   70.3374   51.8446   43.6381 S   0  0  0  0  0  4  0  0  0  0  0  0
   75.0989   53.9302   45.7177 C   0  0  0  0  0  0  0  0  0  0  0  0
   71.6831   55.0884   40.3974 C   0  0  0  0  0  0  0  0  0  0  0  0
   69.0492   51.3980   43.5416 O   0  0  0  0  0  1  0  0  0  0  0  0
   70.2166   53.9886   42.0513 C   0  0  0  0  0  0  0  0  0  0  0  0
   75.0607   57.3105   42.8422 C   0  0  0  0  0  0  0  0  0  0  0  0
   75.2650   55.2011   45.2348 C   0  0  0  0  0  0  0  0  0  0  0  0
   75.5229   56.0956   42.2885 C   0  0  0  0  0  0  0  0  0  0  0  0
   74.9052   52.9171   40.7068 C   0  0  0  0  0  0  0  0  0  0  0  0
   70.4226   52.8312   44.8585 N   0  0  0  0  0  0  0  0  0  0  0  0
   74.9404   54.4318   40.5395 N   0  0  0  0  0  0  0  0  0  0  0  0
   75.1015   55.7508   41.0027 C   0  0  0  0  0  0  0  0  0  0  0  0
   71.3657   52.9183   46.0435 C   0  0  0  0  0  0  0  0  0  0  0  0
   72.5797   53.8283   45.9465 C   0  0  0  0  0  0  0  0  0  0  0  0
   74.6707   56.7159   40.1275 C   0  0  0  0  0  0  0  0  0  0  0  0
   74.1335   56.0285   38.9202 C   0  0  0  0  0  0  0  0  0  0  0  0
   73.8926   53.3038   46.0056 C   0  0  0  0  0  0  0  0  0  0  0  0
   74.7551   58.3551   41.9296 C   0  0  0  0  0  0  0  0  0  0  0  0
   76.5220   55.1809   42.7472 O   0  0  0  0  0  0  0  0  0  0  0  0
   70.6470   54.9893   41.2457 C   0  0  0  0  0  0  0  0  0  0  0  0
   74.3620   56.2019   44.9012 C   0  0  0  0  0  0  0  0  0  0  0  0
   74.7514   57.3833   44.2258 N   0  0  0  0  0  0  0  0  0  0  0  0
   72.2985   55.1622   45.7715 C   0  0  0  0  0  0  0  0  0  0  0  0
   77.2640   52.4647   40.9020 C   0  0  0  0  0  0  0  0  0  0  0  0
   74.5939   58.0636   40.5644 C   0  0  0  0  0  0  0  0  0  0  0  0
   73.8451   54.5631   39.3731 C   0  0  0  0  0  0  0  0  0  0  0  0
   73.0105   56.1723   45.2414 C   0  0  0  0  0  0  0  0  0  0  0  0
   71.3360   50.8422   43.8652 O   0  0  0  0  0  1  0  0  0  0  0  0
   71.6390   52.1737   41.3742 C   0  0  0  0  0  0  0  0  0  0  0  0
   70.7100   52.7256   42.2811 C   0  0  0  0  0  0  0  0  0  0  0  0
   72.4057   52.8073   40.5006 C   0  0  0  0  0  0  0  0  0  0  0  0
   78.0546   53.4437   41.7327 C   0  0  0  0  0  0  0  0  0  0  0  0
  1  6  1  0
  1 29  1  0
  1 34  1  0
  2 22  1  0
  2 35  1  0
  3 12  1  0
  3 27  1  0
  4  7  1  0
  4 13  1  0
  4 31  1  0
  4 33  1  0
  5 10  2  0
  5 20  1  0
  6 23  2  0
  8 23  1  0
  8 33  1  0
  9 11  1  0
  9 21  1  0
  9 25  1  0
 10 24  1  0
 11 15  1  0
 11 22  1  0
 12 14  1  0
 13 16  1  0
 14 15  1  0
 14 29  1  0
 15 18  2  0
 16 17  1  0
 17 20  2  0
 17 26  1  0
 18 19  1  0
 18 28  1  0
 19 29  1  0
 21 28  2  0
 24 25  1  0
 24 30  1  0
 26 30  2  0
 27 35  1  0
 32 33  1  0
 32 34  2  0
M  END
>  <ID>  (1) 
conformer_0

$$$$
