
     RDKit          3D

 27 30  0  0  0  0  0  0  0  0999 V2000
   71.3430   52.5426   43.6467 C   0  0  0  0  0  0  0  0  0  0  0  0
   72.0008   53.4943   46.7004 C   0  0  0  0  0  0  0  0  0  0  0  0
   75.0150   57.3589   44.3955 N   0  0  0  0  0  0  0  0  0  0  0  0
   73.7637   58.4513   41.0211 C   0  0  0  0  0  0  0  0  0  0  0  0
   75.2826   55.1162   45.4219 C   0  0  0  0  0  0  0  0  0  0  0  0
   70.3273   51.7444   44.3944 C   0  0  0  0  0  0  0  0  0  0  0  0
   71.3739   52.3552   42.3251 N   0  0  0  0  0  0  0  0  0  0  0  0
   72.7910   55.4622   40.0315 C   0  0  0  0  0  0  0  0  0  0  0  0
   69.0938   49.6650   44.6779 N   0  0  0  0  0  0  0  0  0  0  0  0
   74.0589   57.5947   42.2310 C   0  0  0  0  0  0  0  0  0  0  0  0
   74.6437   56.0667   44.4339 C   0  0  0  0  0  0  0  0  0  0  0  0
   69.5727   50.2637   42.6289 O   0  0  0  0  0  0  0  0  0  0  0  0
   73.0022   55.4488   41.3631 C   0  0  0  0  0  0  0  0  0  0  0  0
   74.7088   58.1168   43.2863 N   0  0  0  0  0  0  0  0  0  0  0  0
   72.5489   54.3104   42.0637 C   0  0  0  0  0  0  0  0  0  0  0  0
   69.9346   52.2522   45.6694 C   0  0  0  0  0  0  0  0  0  0  0  0
   73.6296   56.2974   42.2756 C   0  0  0  0  0  0  0  0  0  0  0  0
   73.7401   55.5785   43.5146 C   0  0  0  0  0  0  0  0  0  0  0  0
   71.8629   53.3078   41.5596 C   0  0  0  0  0  0  0  0  0  0  0  0
   69.1288   51.6793   46.5483 O   0  0  0  0  0  0  0  0  0  0  0  0
   71.2268   54.6764   45.9570 O   0  0  0  0  0  0  0  0  0  0  0  0
   70.6748   53.4555   46.1962 C   0  0  0  0  0  0  0  0  0  0  0  0
   71.6603   53.3533   40.1937 C   0  0  0  0  0  0  0  0  0  0  0  0
   72.1273   54.4081   39.4359 C   0  0  0  0  0  0  0  0  0  0  0  0
   72.8749   54.3891   43.4046 C   0  0  0  0  0  0  0  0  0  0  0  0
   72.2432   53.4574   44.1406 N   0  0  0  0  0  0  0  0  0  0  0  0
   69.6793   50.5431   43.8447 C   0  0  0  0  0  0  0  0  0  0  0  0
  1  6  1  0
  1  7  2  0
  1 26  1  0
  2 22  1  0
  3 11  2  0
  3 14  1  0
  4 10  1  0
  5 11  1  0
  6 16  2  3
  6 27  1  0
  7 19  1  0
  8 13  2  0
  8 24  1  0
  9 27  1  0
 10 14  2  0
 10 17  1  0
 11 18  1  0
 12 27  2  0
 13 15  1  0
 13 17  1  0
 15 19  2  0
 15 25  1  0
 16 20  1  0
 16 22  1  0
 17 18  1  0
 18 25  1  0
 19 23  1  0
 21 22  1  0
 23 24  2  0
 25 26  2  0
M  END
>  <ID>  (1) 
conformer_0

$$$$
