
     RDKit          3D

 20 22  0  0  0  0  0  0  0  0999 V2000
   74.3121   58.4336   40.2421 C   0  0  0  0  0  0  0  0  0  0  0  0
   70.8945   51.8161   45.0134 C   0  0  0  0  0  0  0  0  0  0  0  0
   72.9311   56.0511   41.8485 C   0  0  0  0  0  0  0  0  0  0  0  0
   72.4752   54.4505   44.4874 C   0  0  0  0  0  0  0  0  0  0  0  0
   72.1574   55.0721   42.2083 C   0  0  0  0  0  0  0  0  0  0  0  0
   69.7872   54.2615   41.0232 O   0  0  0  0  0  0  0  0  0  0  0  0
   69.5675   51.3275   42.9647 C   0  0  0  0  0  0  0  0  0  0  0  0
   70.4943   52.1890   43.6932 C   0  0  0  0  0  0  0  0  0  0  0  0
   72.9459   56.3248   40.3851 C   0  0  0  0  0  0  0  0  0  0  0  0
   70.8209   53.2941   42.9996 C   0  0  0  0  0  0  0  0  0  0  0  0
   69.2547   52.1722   41.7603 N   0  0  0  0  0  0  0  0  0  0  0  0
   71.8293   52.5438   45.7832 C   0  0  0  0  0  0  0  0  0  0  0  0
   73.2681   55.5315   44.7233 C   0  0  0  0  0  0  0  0  0  0  0  0
   73.7563   56.5607   44.0916 C   0  0  0  0  0  0  0  0  0  0  0  0
   72.4415   53.6285   45.5165 N   0  0  0  0  0  0  0  0  0  0  0  0
   73.6800   56.8291   42.7507 C   0  0  0  0  0  0  0  0  0  0  0  0
   69.9981   53.3174   41.8177 C   0  0  0  0  0  0  0  0  0  0  0  0
   71.7961   54.2564   43.2506 C   0  0  0  0  0  0  0  0  0  0  0  0
   74.1187   56.9558   39.8268 C   0  0  0  0  0  0  0  0  0  0  0  0
   70.3805   50.7770   45.4708 O   0  0  0  0  0  0  0  0  0  0  0  0
  1 19  1  0
  2  8  1  0
  2 12  1  0
  2 20  2  0
  3  5  2  0
  3  9  1  0
  3 16  1  0
  4 13  1  0
  4 15  1  0
  4 18  2  0
  5 18  1  0
  6 17  2  0
  7  8  1  0
  7 11  1  0
  8 10  2  0
  9 19  1  0
 10 17  1  0
 10 18  1  0
 11 17  1  0
 12 15  2  0
 13 14  2  0
 14 16  1  0
M  END
>  <ID>  (1) 
conformer_0

$$$$
