
     RDKit          3D

 27 30  0  0  0  0  0  0  0  0999 V2000
   73.8175   51.9519   46.5704 O   0  0  0  0  0  0  0  0  0  0  0  0
   73.1129   56.0792   42.2855 C   0  0  0  0  0  0  0  0  0  0  0  0
   72.4273   52.2204   46.8887 C   0  0  0  0  0  0  0  0  0  0  0  0
   71.7352   52.1618   40.4198 C   0  0  0  0  0  0  0  0  0  0  0  0
   72.5326   53.4562   44.7896 C   0  0  0  0  0  0  0  0  0  0  0  0
   72.9227   55.4688   43.5707 C   0  0  0  0  0  0  0  0  0  0  0  0
   71.7222   52.6457   45.6753 C   0  0  0  0  0  0  0  0  0  0  0  0
   70.6194   51.2640   42.7637 C   0  0  0  0  0  0  0  0  0  0  0  0
   70.4037   53.2336   45.6749 O   0  0  0  0  0  0  0  0  0  0  0  0
   70.5357   52.9521   40.8731 C   0  0  0  0  0  0  0  0  0  0  0  0
   75.1108   55.8919   44.5303 O   0  0  0  0  0  0  0  0  0  0  0  0
   74.0940   55.1483   44.3795 C   0  0  0  0  0  0  0  0  0  0  0  0
   72.9797   53.0249   40.1452 C   0  0  0  0  0  0  0  0  0  0  0  0
   70.1222   54.2601   40.3090 C   0  0  0  0  0  0  0  0  0  0  0  0
   71.8316   54.5876   44.0326 C   0  0  0  0  0  0  0  0  0  0  0  0
   73.7630   54.0537   45.2999 C   0  0  0  0  0  0  0  0  0  0  0  0
   68.3587   52.1115   45.8352 C   0  0  0  0  0  0  0  0  0  0  0  0
   71.3160   54.9676   39.6365 C   0  0  0  0  0  0  0  0  0  0  0  0
   73.2979   57.3625   42.2679 O   0  0  0  0  0  0  0  0  0  0  0  0
   69.9380   52.5941   42.1851 C   0  0  0  0  0  0  0  0  0  0  0  0
   72.6225   54.5210   40.2191 C   0  0  0  0  0  0  0  0  0  0  0  0
   73.5014   55.3866   41.0147 C   0  0  0  0  0  0  0  0  0  0  0  0
   74.9734   55.0978   40.8706 C   0  0  0  0  0  0  0  0  0  0  0  0
   69.5402   52.2839   44.9626 C   0  0  0  0  0  0  0  0  0  0  0  0
   70.0114   51.0866   44.1847 C   0  0  0  0  0  0  0  0  0  0  0  0
   68.9501   50.2142   44.0147 O   0  0  0  0  0  0  0  0  0  0  0  0
   74.5710   53.1607   46.1741 C   0  0  0  0  0  0  0  0  0  0  0  0
  1  3  1  0
  1 27  1  0
  2  6  1  0
  2 19  1  0
  2 22  1  0
  3  7  1  0
  4 10  1  0
  4 13  1  0
  5  7  1  0
  5 15  1  0
  5 16  1  0
  6 12  1  0
  6 15  1  0
  7  9  1  0
  8 20  1  0
  8 25  1  0
  9 24  1  0
 10 14  1  0
 10 20  1  0
 11 12  2  0
 12 16  1  0
 13 21  1  0
 14 18  1  0
 16 27  1  0
 17 24  1  0
 18 21  1  0
 21 22  1  0
 22 23  1  0
 24 25  1  0
 25 26  1  0
M  END
>  <ID>  (1) 
conformer_0

$$$$
