
     RDKit          3D

 36 39  0  0  0  0  0  0  0  0999 V2000
   76.5355   54.3515   39.6780 C   0  0  0  0  0  0  0  0  0  0  0  0
   72.3501   51.1860   42.6205 C   0  0  0  0  0  0  0  0  0  0  0  0
   73.3246   55.6254   42.8417 C   0  0  0  0  0  0  0  0  0  0  0  0
   76.6772   51.9799   40.8157 C   0  0  0  0  0  0  0  0  0  0  0  0
   77.6497   54.7825   40.6785 C   0  0  0  0  0  0  0  0  0  0  0  0
   70.8768   53.5601   39.7480 C   0  0  0  0  0  0  0  0  0  0  0  0
   72.3091   51.7377   40.3268 C   0  0  0  0  0  0  0  0  0  0  0  0
   77.7612   53.1359   42.7533 C   0  0  0  0  0  0  0  0  0  0  0  0
   74.5548   58.0077   42.4203 C   0  0  0  0  0  0  0  0  0  0  0  0
   75.2754   53.2527   43.1964 C   0  0  0  0  0  0  0  0  0  0  0  0
   71.4085   52.2319   42.6673 C   0  0  0  0  0  0  0  0  0  0  0  0
   69.5844   54.9966   41.1132 C   0  0  0  0  0  0  0  0  0  0  0  0
   73.4154   53.1232   44.5260 C   0  0  0  0  0  0  0  0  0  0  0  0
   75.8769   53.0268   40.0483 C   0  0  0  0  0  0  0  0  0  0  0  0
   77.1128   51.8575   42.2484 C   0  0  0  0  0  0  0  0  0  0  0  0
   71.0903   52.5563   44.0355 N   0  0  0  0  0  0  0  0  0  0  0  0
   71.9330   53.3252   44.7434 C   0  0  0  0  0  0  0  0  0  0  0  0
   72.6585   55.7103   46.4252 C   0  0  0  0  0  0  0  0  0  0  0  0
   75.4007   54.2908   45.2275 O   0  0  0  0  0  0  0  0  0  0  0  0
   70.0733   53.2550   45.8656 N   0  0  0  0  0  0  0  0  0  0  0  0
   71.3828   55.1539   46.3018 O   0  0  0  0  0  0  0  0  0  0  0  0
   73.3105   56.1244   45.3026 N   0  0  0  0  0  0  0  0  0  0  0  0
   74.0303   57.3269   41.3340 C   0  0  0  0  0  0  0  0  0  0  0  0
   71.1841   53.9448   45.7217 C   0  0  0  0  0  0  0  0  0  0  0  0
   70.3734   53.8404   40.9761 C   0  0  0  0  0  0  0  0  0  0  0  0
   72.9240   50.4367   43.3494 O   0  0  0  0  0  0  0  0  0  0  0  0
   73.6906   56.4046   43.9150 C   0  0  0  0  0  0  0  0  0  0  0  0
   74.6124   53.7122   44.3789 C   0  0  0  0  0  0  0  0  0  0  0  0
   70.5871   53.2038   42.1078 C   0  0  0  0  0  0  0  0  0  0  0  0
   77.5459   54.5315   42.1697 C   0  0  0  0  0  0  0  0  0  0  0  0
   74.3598   57.5706   43.7085 C   0  0  0  0  0  0  0  0  0  0  0  0
   76.6438   52.6002   43.5933 C   0  0  0  0  0  0  0  0  0  0  0  0
   73.4263   56.1241   41.5474 C   0  0  0  0  0  0  0  0  0  0  0  0
   71.8029   52.6090   39.4311 C   0  0  0  0  0  0  0  0  0  0  0  0
   70.0178   52.4202   44.8465 C   0  0  0  0  0  0  0  0  0  0  0  0
   72.1497   51.5967   41.6160 C   0  0  0  0  0  0  0  0  0  0  0  0
  1  5  1  0
  1 14  1  0
  2 11  1  0
  2 26  1  0
  2 36  2  0
  3 27  1  0
  3 33  1  0
  4 14  1  0
  4 15  1  0
  5 30  1  0
  6 25  1  0
  6 34  2  0
  7 34  1  0
  7 36  2  0
  8 15  1  0
  8 30  1  0
  8 32  1  0
  9 23  1  0
  9 31  1  0
 10 28  1  0
 10 32  1  0
 11 16  1  0
 11 29  1  0
 12 25  1  0
 13 17  1  0
 13 28  1  0
 16 17  1  0
 16 35  1  0
 17 24  1  0
 18 21  1  0
 18 22  1  0
 19 28  1  0
 20 24  1  0
 20 35  1  0
 21 24  1  0
 22 27  1  0
 23 33  2  0
 25 29  2  0
 27 31  2  0
M  END
>  <ID>  (1) 
conformer_0

$$$$
