
     RDKit          3D

 16 17  0  0  0  0  0  0  0  0999 V2000
   73.8316   57.6258   40.6151 C   0  0  0  0  0  0  0  0  0  0  0  0
   73.1349   55.1091   42.1078 N   0  0  0  0  0  0  0  0  0  0  0  0
   71.8425   53.2896   44.8982 C   0  0  0  0  0  0  0  0  0  0  0  0
   74.1091   56.1940   40.1057 C   0  0  0  0  0  0  0  0  0  0  0  0
   72.5775   54.3882   44.3330 N   0  0  0  0  0  0  0  0  0  0  0  0
   72.8682   55.4974   45.1586 C   0  0  0  0  0  0  0  0  0  0  0  0
   73.9963   56.2582   38.5807 C   0  0  0  0  0  0  0  0  0  0  0  0
   72.2673   54.6320   39.9566 O   0  0  0  0  0  0  0  0  0  0  0  0
   70.5078   51.7226   45.8018 C   0  0  0  0  0  0  0  0  0  0  0  0
   69.9031   52.2438   44.6852 N   0  0  0  0  0  0  0  0  0  0  0  0
   70.7661   53.0615   43.9930 C   0  0  0  0  0  0  0  0  0  0  0  0
   71.1006   53.8163   42.8076 C   0  0  0  0  0  0  0  0  0  0  0  0
   71.7647   52.2285   45.7681 O   0  0  0  0  0  0  0  0  0  0  0  0
   73.0865   55.2536   40.7136 C   0  0  0  0  0  0  0  0  0  0  0  0
   72.2435   54.6068   43.0044 C   0  0  0  0  0  0  0  0  0  0  0  0
   75.5312   55.7366   40.5042 C   0  0  0  0  0  0  0  0  0  0  0  0
  1  4  1  0
  2 14  1  0
  2 15  2  3
  3  5  1  0
  3 11  1  0
  3 13  1  0
  4  7  1  0
  4 14  1  0
  4 16  1  0
  5  6  1  0
  5 15  1  0
  8 14  2  0
  9 10  1  0
  9 13  1  0
 10 11  1  0
 11 12  1  0
 12 15  1  0
M  END
>  <ID>  (1) 
conformer_0

$$$$
