
     RDKit          3D

 21 25  0  0  0  0  0  0  0  0999 V2000
   72.7000   55.1658   42.9848 C   0  0  0  0  0  0  0  0  0  0  0  0
   72.4849   55.0395   41.5424 C   0  0  0  0  0  0  0  0  0  0  0  0
   69.3665   53.9918   40.0453 C   0  0  0  0  0  0  0  0  0  0  0  0
   70.6245   52.9869   43.3365 C   0  0  0  0  0  0  0  0  0  0  0  0
   71.6446   52.6256   45.5472 N   0  0  0  0  0  0  0  0  0  0  0  0
   73.6296   53.8848   46.1697 C   0  0  0  0  0  0  0  0  0  0  0  0
   70.4754   53.8242   42.1274 C   0  0  0  0  0  0  0  0  0  0  0  0
   71.2609   53.5838   44.5253 C   0  0  0  0  0  0  0  0  0  0  0  0
   74.4204   56.8535   42.3489 C   0  0  0  0  0  0  0  0  0  0  0  0
   69.2155   53.5965   41.4452 C   0  0  0  0  0  0  0  0  0  0  0  0
   71.4339   54.1593   41.0788 C   0  0  0  0  0  0  0  0  0  0  0  0
   73.8529   56.0977   44.7577 C   0  0  0  0  0  0  0  0  0  0  0  0
   74.1853   56.6228   40.9302 C   0  0  0  0  0  0  0  0  0  0  0  0
   70.6833   54.6528   39.9035 C   0  0  0  0  0  0  0  0  0  0  0  0
   70.5587   51.7279   45.9196 C   0  0  0  0  0  0  0  0  0  0  0  0
   72.3733   54.4568   44.1882 C   0  0  0  0  0  0  0  0  0  0  0  0
   73.6462   56.1538   43.3296 C   0  0  0  0  0  0  0  0  0  0  0  0
   72.8571   52.6418   46.1974 C   0  0  0  0  0  0  0  0  0  0  0  0
   73.1122   54.9767   45.2998 C   0  0  0  0  0  0  0  0  0  0  0  0
   72.9436   56.0191   40.6435 N   0  0  0  0  0  0  0  0  0  0  0  0
   73.3276   51.5946   46.7725 O   0  0  0  0  0  0  0  0  0  0  0  0
  1  2  1  0
  1 16  1  0
  1 17  2  0
  2 11  1  0
  2 20  1  0
  3 10  1  0
  3 14  1  0
  4  7  1  0
  4  8  1  0
  5  8  1  0
  5 15  1  0
  5 18  1  0
  6 18  1  0
  6 19  1  0
  7 10  1  0
  7 11  1  0
  8 16  1  0
  9 13  1  0
  9 17  1  0
 11 14  1  0
 12 17  1  0
 12 19  1  0
 13 20  1  0
 16 19  1  0
 18 21  2  0
M  END
>  <ID>  (1) 
conformer_0

$$$$
