
     RDKit          3D

 19 20  0  0  0  0  0  0  0  0999 V2000
   71.3045   53.5884   44.2729 C   0  0  0  0  0  0  0  0  0  0  0  0
   73.2612   56.1638   43.9735 C   0  0  0  0  0  0  0  0  0  0  0  0
   71.5946   53.7546   42.9694 C   0  0  0  0  0  0  0  0  0  0  0  0
   72.7321   55.4453   41.6053 C   0  0  0  0  0  0  0  0  0  0  0  0
   72.7814   55.8610   40.4246 O   0  0  0  0  0  0  0  0  0  0  0  0
   71.5601   53.7820   46.4815 O   0  0  0  0  0  0  0  0  0  0  0  0
   73.1837   56.2303   42.6284 C   0  0  0  0  0  0  0  0  0  0  0  0
   74.3988   52.5918   39.1909 C   0  0  0  0  0  0  0  0  0  0  0  0
   71.9604   54.2822   45.2821 C   0  0  0  0  0  0  0  0  0  0  0  0
   73.0796   53.3053   39.3814 C   0  0  0  0  0  0  0  0  0  0  0  0
   70.3723   52.7434   44.7828 O   0  0  0  0  0  0  0  0  0  0  0  0
   72.1749   54.1685   41.8898 C   0  0  0  0  0  0  0  0  0  0  0  0
   70.7638   53.0218   40.2752 C   0  0  0  0  0  0  0  0  0  0  0  0
   70.3998   52.8715   46.2474 C   0  0  0  0  0  0  0  0  0  0  0  0
   72.8921   55.3185   45.0513 C   0  0  0  0  0  0  0  0  0  0  0  0
   72.8078   51.8302   41.3053 C   0  0  0  0  0  0  0  0  0  0  0  0
   73.5245   55.6164   46.2071 O   0  0  0  0  0  0  0  0  0  0  0  0
   73.9327   57.3207   44.3902 O   0  0  0  0  0  0  0  0  0  0  0  0
   72.2587   53.1682   40.6903 C   0  0  0  0  0  0  0  0  0  0  0  0
  1  3  2  0
  1  9  1  0
  1 11  1  0
  2  7  2  0
  2 15  1  0
  2 18  1  0
  3 12  2  0
  4  5  2  0
  4  7  1  0
  4 12  1  0
  6  9  1  0
  6 14  1  0
  8 10  1  0
  9 15  1  0
 10 19  1  0
 11 14  1  0
 12 19  1  0
 13 19  1  0
 15 17  1  0
 16 19  1  0
M  END
>  <ID>  (1) 
conformer_0

$$$$
