
     RDKit          3D

 23 27  0  0  0  0  0  0  0  0999 V2000
   71.5406   52.5904   46.0365 C   0  0  0  0  0  0  0  0  0  0  0  0
   72.2700   52.0085   44.8828 C   0  0  0  0  0  0  0  0  0  0  0  0
   72.3671   52.8127   41.3484 C   0  0  0  0  0  0  0  0  0  0  0  0
   71.8262   52.1533   47.1925 O   0  0  0  0  0  0  0  0  0  0  0  0
   73.4479   56.1781   41.7063 C   0  0  0  0  0  0  0  0  0  0  0  0
   69.3163   51.0679   43.6845 C   0  0  0  0  0  0  0  0  0  0  0  0
   73.8367   58.1501   42.9237 C   0  0  0  0  0  0  0  0  0  0  0  0
   72.1724   53.0027   42.6802 C   0  0  0  0  0  0  0  0  0  0  0  0
   72.8488   53.9494   40.7670 N   0  0  0  0  0  0  0  0  0  0  0  0
   70.1033   52.8105   45.7087 C   0  0  0  0  0  0  0  0  0  0  0  0
   73.0202   54.8274   41.7379 C   0  0  0  0  0  0  0  0  0  0  0  0
   72.8907   54.9055   44.0957 N   0  0  0  0  0  0  0  0  0  0  0  0
   74.0677   58.1186   40.5889 C   0  0  0  0  0  0  0  0  0  0  0  0
   69.4092   51.4896   45.2075 C   0  0  0  0  0  0  0  0  0  0  0  0
   73.7346   56.8085   40.5360 C   0  0  0  0  0  0  0  0  0  0  0  0
   70.9177   50.6536   41.5749 C   0  0  0  0  0  0  0  0  0  0  0  0
   72.1465   51.3799   40.7742 C   0  0  0  0  0  0  0  0  0  0  0  0
   71.5581   52.1037   43.5901 C   0  0  0  0  0  0  0  0  0  0  0  0
   70.7611   50.9735   43.0943 C   0  0  0  0  0  0  0  0  0  0  0  0
   73.2621   56.1482   44.1156 C   0  0  0  0  0  0  0  0  0  0  0  0
   74.1114   58.7936   41.7755 N   0  0  0  0  0  0  0  0  0  0  0  0
   73.5258   56.8393   42.9309 C   0  0  0  0  0  0  0  0  0  0  0  0
   72.6874   54.2631   42.9388 N   0  0  0  0  0  0  0  0  0  0  0  0
  1  2  1  0
  1  4  2  0
  1 10  1  0
  2 18  1  0
  3  8  2  0
  3  9  1  0
  3 17  1  0
  5 11  2  0
  5 15  1  0
  5 22  1  0
  6 14  1  0
  6 19  1  0
  7 21  2  0
  7 22  1  0
  8 18  1  0
  8 23  1  0
  9 11  1  0
 10 14  1  0
 11 23  1  0
 12 20  2  0
 12 23  1  0
 13 15  2  0
 13 21  1  0
 16 17  1  0
 16 19  1  0
 18 19  1  0
 20 22  1  0
M  END
>  <ID>  (1) 
conformer_0

$$$$
