
     RDKit          3D

 40 45  0  0  0  0  0  0  0  0999 V2000
   71.3113   52.5513   44.3116 C   0  0  0  0  0  0  0  0  0  0  0  0
   71.1689   54.7099   39.9604 C   0  0  0  0  0  0  0  0  0  0  0  0
   72.3786   51.8176   47.7652 O   0  0  0  0  0  0  0  0  0  0  0  0
   70.5623   54.9414   41.2337 C   0  0  0  0  0  0  0  0  0  0  0  0
   72.1945   53.0246   47.7176 C   0  0  0  0  0  0  0  0  0  0  0  0
   73.6171   53.4628   44.3324 C   0  0  0  0  0  0  0  0  0  0  0  0
   76.1157   54.3153   43.9178 C   0  0  0  0  0  0  0  0  0  0  0  0
   70.8771   51.2068   41.7456 C   0  0  0  0  0  0  0  0  0  0  0  0
   69.9517   52.7430   46.3919 C   0  0  0  0  0  0  0  0  0  0  0  0
   74.5722   55.7418   38.9779 C   0  0  0  0  0  0  0  0  0  0  0  0
   72.5181   54.4738   39.6003 C   0  0  0  0  0  0  0  0  0  0  0  0
   76.2006   56.6466   43.1388 C   0  0  0  0  0  0  0  0  0  0  0  0
   71.9921   53.7549   46.5790 O   0  0  0  0  0  0  0  0  0  0  0  0
   75.5300   57.8418   42.9719 C   0  0  0  0  0  0  0  0  0  0  0  0
   69.8691   50.4276   41.2261 C   0  0  0  0  0  0  0  0  0  0  0  0
   74.9024   50.7162   41.3805 C   0  0  0  0  0  0  0  0  0  0  0  0
   74.5400   51.1286   42.7679 C   0  0  0  0  0  0  0  0  0  0  0  0
   73.5329   57.0507   44.1210 C   0  0  0  0  0  0  0  0  0  0  0  0
   75.5025   55.6186   43.7988 C   0  0  0  0  0  0  0  0  0  0  0  0
   74.2290   58.0466   43.4595 C   0  0  0  0  0  0  0  0  0  0  0  0
   70.5739   52.6586   41.7544 C   0  0  0  0  0  0  0  0  0  0  0  0
   73.4331   54.8192   44.8431 O   0  0  0  0  0  0  0  0  0  0  0  0
   72.7252   52.5190   43.7686 N   0  0  0  0  0  0  0  0  0  0  0  0
   76.8261   52.0662   42.9565 C   0  0  0  0  0  0  0  0  0  0  0  0
   75.2600   54.5432   39.0789 C   0  0  0  0  0  0  0  0  0  0  0  0
   72.0761   50.5845   42.2250 C   0  0  0  0  0  0  0  0  0  0  0  0
   74.1784   55.8485   44.2772 C   0  0  0  0  0  0  0  0  0  0  0  0
   73.1103   51.3620   42.9655 C   0  0  0  0  0  0  0  0  0  0  0  0
   75.4066   52.0980   43.3081 N   0  0  0  0  0  0  0  0  0  0  0  0
   71.2097   52.9749   45.6998 C   0  0  0  0  0  0  0  0  0  0  0  0
   75.0511   53.2718   44.0046 C   0  0  0  0  0  0  0  0  0  0  0  0
   75.8028   51.6313   40.6649 C   0  0  0  0  0  0  0  0  0  0  0  0
   74.6229   53.2999   39.3127 C   0  0  0  0  0  0  0  0  0  0  0  0
   76.9210   52.2410   41.4564 C   0  0  0  0  0  0  0  0  0  0  0  0
   70.0060   49.0583   41.1271 C   0  0  0  0  0  0  0  0  0  0  0  0
   71.1867   48.4470   41.5125 C   0  0  0  0  0  0  0  0  0  0  0  0
   75.3399   52.1678   39.4510 O   0  0  0  0  0  0  0  0  0  0  0  0
   73.2327   53.4421   39.5151 C   0  0  0  0  0  0  0  0  0  0  0  0
   70.7107   53.5359   40.7020 O   0  0  0  0  0  0  0  0  0  0  0  0
   72.2128   49.2159   42.0384 C   0  0  0  0  0  0  0  0  0  0  0  0
  1 23  1  0
  1 30  1  0
  2  4  1  0
  2 11  1  0
  2 39  1  0
  3  5  2  0
  5 13  1  0
  6 22  1  0
  6 23  1  0
  6 31  1  0
  7 19  1  0
  7 31  1  0
  8 15  1  0
  8 21  1  0
  8 26  2  0
  9 30  1  0
 10 25  1  0
 11 38  2  0
 12 14  2  0
 12 19  1  0
 13 30  1  0
 14 20  1  0
 15 35  2  0
 16 17  1  0
 16 32  1  0
 17 28  1  0
 17 29  1  0
 18 20  1  0
 18 27  2  0
 19 27  1  0
 21 39  1  0
 22 27  1  0
 23 28  1  0
 24 29  1  0
 24 34  1  0
 25 33  2  3
 26 28  1  0
 26 40  1  0
 29 31  1  0
 32 34  1  0
 32 37  1  0
 33 37  1  0
 33 38  1  0
 35 36  1  0
 36 40  2  0
M  END
>  <ID>  (1) 
conformer_0

$$$$
