
     RDKit          3D

 15 15  0  0  0  0  0  0  0  0999 V2000
   72.3166   51.8067   45.6846 C   0  0  0  0  0  0  0  0  0  0  0  0
   73.6208   55.5743   39.1804 C   0  0  0  0  0  0  0  0  0  0  0  0
   69.7444   52.3334   44.1291 N   0  0  0  0  0  0  0  0  0  0  0  0
   71.2182   53.8703   42.9491 C   0  0  0  0  0  0  0  0  0  0  0  0
   74.0589   56.5284   40.2369 C   0  0  0  0  0  0  0  0  0  0  0  0
   73.1467   51.4280   46.3093 N   0  0  0  0  0  0  0  0  0  0  0  0
   72.2801   54.7296   42.9549 C   0  0  0  0  0  0  0  0  0  0  0  0
   71.8034   52.5066   44.9124 C   0  0  0  0  0  0  0  0  0  0  0  0
   70.4465   53.9802   41.8822 O   0  0  0  0  0  0  0  0  0  0  0  0
   71.1467   55.0281   41.0946 C   0  0  0  0  0  0  0  0  0  0  0  0
   74.2009   56.7975   42.6870 C   0  0  0  0  0  0  0  0  0  0  0  0
   72.2375   55.4501   41.8157 C   0  0  0  0  0  0  0  0  0  0  0  0
   72.4344   57.9189   41.4972 C   0  0  0  0  0  0  0  0  0  0  0  0
   73.1975   56.6258   41.5464 C   0  0  0  0  0  0  0  0  0  0  0  0
   70.9137   52.8710   44.0120 C   0  0  0  0  0  0  0  0  0  0  0  0
  1  6  3  0
  1  8  1  0
  2  5  1  0
  3 15  2  0
  4  7  1  0
  4  9  1  0
  4 15  1  0
  5 14  1  0
  7 12  1  0
  8 15  1  0
  9 10  1  0
 10 12  1  0
 11 14  1  0
 12 14  1  0
 13 14  1  0
M  END
>  <ID>  (1) 
conformer_0

$$$$
