
     RDKit          3D

 20 22  0  0  0  0  0  0  0  0999 V2000
   71.9328   54.0003   42.7696 C   0  0  0  0  0  0  0  0  0  0  0  0
   73.6192   52.2737   45.8966 C   0  0  0  0  0  0  0  0  0  0  0  0
   71.5559   55.3584   45.4393 C   0  0  0  0  0  0  0  0  0  0  0  0
   74.2919   55.7395   38.8043 C   0  0  0  0  0  0  0  0  0  0  0  0
   73.0895   54.4600   40.7147 C   0  0  0  0  0  0  0  0  0  0  0  0
   73.3169   57.2638   43.3371 C   0  0  0  0  0  0  0  0  0  0  0  0
   71.3984   53.3751   44.0122 C   0  0  0  0  0  0  0  0  0  0  0  0
   74.5119   56.7811   39.8217 C   0  0  0  0  0  0  0  0  0  0  0  0
   73.0976   56.4786   42.0936 C   0  0  0  0  0  0  0  0  0  0  0  0
   72.8488   51.4973   47.4241 N   0  0  0  0  0  0  0  0  0  0  0  0
   70.6973   52.2021   42.2183 N   0  0  0  0  0  0  0  0  0  0  0  0
   72.7056   52.2898   46.6338 C   0  0  0  0  0  0  0  0  0  0  0  0
   73.8819   54.4873   39.3679 C   0  0  0  0  0  0  0  0  0  0  0  0
   70.4295   52.3638   43.5718 C   0  0  0  0  0  0  0  0  0  0  0  0
   71.5777   53.0748   41.7483 C   0  0  0  0  0  0  0  0  0  0  0  0
   72.7831   55.0084   42.0285 C   0  0  0  0  0  0  0  0  0  0  0  0
   71.4920   53.9277   45.2634 C   0  0  0  0  0  0  0  0  0  0  0  0
   72.4327   53.1514   40.7047 C   0  0  0  0  0  0  0  0  0  0  0  0
   71.6252   53.2449   46.4007 C   0  0  0  0  0  0  0  0  0  0  0  0
   73.5373   57.1467   40.8289 C   0  0  0  0  0  0  0  0  0  0  0  0
  1  7  1  0
  1 15  1  0
  1 16  1  0
  2 12  1  0
  3 17  1  0
  4  8  1  0
  4 13  1  0
  5 13  1  0
  5 16  1  0
  5 18  1  0
  6  9  1  0
  7 14  1  0
  7 17  1  0
  8 20  1  0
  9 16  1  0
  9 20  1  0
 10 12  2  0
 11 14  1  0
 11 15  1  0
 12 19  1  0
 15 18  1  0
 17 19  1  0
M  END
>  <ID>  (1) 
conformer_0

$$$$
