
     RDKit          3D

 26 29  0  0  0  0  0  0  0  0999 V2000
   73.6630   54.0290   44.5467 N   0  0  0  0  0  0  0  0  0  0  0  0
   71.6474   51.1889   41.6734 N   0  0  0  0  0  0  0  0  0  0  0  0
   73.2259   55.7130   41.6257 C   0  0  0  0  0  0  0  0  0  0  0  0
   71.3192   52.5584   39.6927 C   0  0  0  0  0  0  0  0  0  0  0  0
   70.1722   51.1919   45.3178 C   0  0  0  0  0  0  0  0  0  0  0  0
   72.7179   52.9543   44.4543 C   0  0  0  0  0  0  0  0  0  0  0  0
   70.6380   52.5413   45.8704 C   0  0  0  0  0  0  0  0  0  0  0  0
   69.9508   52.6540   47.2616 C   0  0  0  0  0  0  0  0  0  0  0  0
   70.0913   53.7143   45.0817 C   0  0  0  0  0  0  0  0  0  0  0  0
   74.3636   54.5091   43.4502 C   0  0  0  0  0  0  0  0  0  0  0  0
   74.1094   56.9458   43.5081 C   0  0  0  0  0  0  0  0  0  0  0  0
   71.7591   52.3012   40.9523 C   0  0  0  0  0  0  0  0  0  0  0  0
   72.4347   52.5251   43.0617 C   0  0  0  0  0  0  0  0  0  0  0  0
   73.8737   55.7451   42.8868 C   0  0  0  0  0  0  0  0  0  0  0  0
   72.7175   54.4910   41.1111 C   0  0  0  0  0  0  0  0  0  0  0  0
   72.3955   53.2176   41.7559 C   0  0  0  0  0  0  0  0  0  0  0  0
   72.2081   52.7294   45.9622 C   0  0  0  0  0  0  0  0  0  0  0  0
   72.0375   51.2535   42.8426 N   0  0  0  0  0  0  0  0  0  0  0  0
   71.6747   53.7541   39.0809 C   0  0  0  0  0  0  0  0  0  0  0  0
   73.3153   58.1228   41.6287 C   0  0  0  0  0  0  0  0  0  0  0  0
   71.2040   49.9044   41.0365 C   0  0  0  0  0  0  0  0  0  0  0  0
   72.4886   53.9802   46.9367 C   0  0  0  0  0  0  0  0  0  0  0  0
   72.3833   54.6479   39.7627 C   0  0  0  0  0  0  0  0  0  0  0  0
   73.0500   56.9385   40.9939 C   0  0  0  0  0  0  0  0  0  0  0  0
   72.8659   51.6244   46.4203 O   0  0  0  0  0  0  0  0  0  0  0  0
   73.8148   58.1299   42.9014 C   0  0  0  0  0  0  0  0  0  0  0  0
  1  6  2  0
  1 10  1  0
  2 12  1  0
  2 18  1  0
  2 21  1  0
  3 14  2  0
  3 15  1  0
  3 24  1  0
  4 12  2  0
  4 19  1  0
  5  7  1  0
  6 13  1  0
  6 17  1  0
  7  8  1  0
  7  9  1  0
  7 17  1  0
 10 14  1  0
 11 14  1  0
 11 26  2  0
 12 16  1  0
 13 16  2  0
 13 18  1  0
 15 16  1  0
 15 23  1  0
 17 22  1  0
 17 25  1  0
 19 23  2  0
 20 24  2  0
 20 26  1  0
M  END
>  <ID>  (1) 
conformer_0

$$$$
