
     RDKit          3D

 34 38  0  0  0  0  0  0  0  0999 V2000
   76.4215   52.9604   39.5212 C   0  0  0  0  0  0  0  0  0  0  0  0
   72.0012   52.4255   43.1277 C   0  0  0  0  0  0  0  0  0  0  0  0
   72.2442   52.9209   41.8580 N   0  0  0  0  0  0  0  0  0  0  0  0
   73.7856   57.1080   40.7387 C   0  0  0  0  0  0  0  0  0  0  0  0
   73.4771   56.1828   42.9285 C   0  0  0  0  0  0  0  0  0  0  0  0
   74.0240   53.5526   45.4176 C   0  0  0  0  0  0  0  0  0  0  0  0
   71.3679   54.2858   39.9717 C   0  0  0  0  0  0  0  0  0  0  0  0
   74.5293   52.5147   40.7622 C   0  0  0  0  0  0  0  0  0  0  0  0
   74.3450   58.3754   42.7370 C   0  0  0  0  0  0  0  0  0  0  0  0
   75.4816   53.1695   41.5992 C   0  0  0  0  0  0  0  0  0  0  0  0
   70.0762   54.7663   39.6267 C   0  0  0  0  0  0  0  0  0  0  0  0
   76.6788   53.4585   40.8211 C   0  0  0  0  0  0  0  0  0  0  0  0
   69.9185   53.8340   41.6719 C   0  0  0  0  0  0  0  0  0  0  0  0
   70.2123   52.6432   44.7676 N   0  0  0  0  0  0  0  0  0  0  0  0
   74.4329   51.7841   38.4058 C   0  0  0  0  0  0  0  0  0  0  0  0
   73.1480   55.1215   43.7173 C   0  0  0  0  0  0  0  0  0  0  0  0
   71.4677   51.0320   43.1144 C   0  0  0  0  0  0  0  0  0  0  0  0
   75.0846   52.4155   39.5292 N   0  0  0  0  0  0  0  0  0  0  0  0
   70.9652   53.8414   45.8787 C   0  0  0  0  0  0  0  0  0  0  0  0
   71.5420   55.2644   46.3045 C   0  0  0  0  0  0  0  0  0  0  0  0
   73.4233   56.1165   41.5695 C   0  0  0  0  0  0  0  0  0  0  0  0
   73.9290   57.3680   43.5438 C   0  0  0  0  0  0  0  0  0  0  0  0
   70.2215   51.0271   44.1382 S   0  0  0  0  0  0  0  0  0  0  0  0
   76.0445   53.8579   44.0514 C   0  0  0  0  0  0  0  0  0  0  0  0
   77.0968   54.5331   44.0706 O   0  0  0  0  0  0  0  0  0  0  0  0
   71.2446   53.6666   41.1996 C   0  0  0  0  0  0  0  0  0  0  0  0
   75.3811   53.5560   45.3169 C   0  0  0  0  0  0  0  0  0  0  0  0
   69.1703   54.4581   40.7411 C   0  0  0  0  0  0  0  0  0  0  0  0
   73.1910   51.9977   41.1028 C   0  0  0  0  0  0  0  0  0  0  0  0
   70.3249   53.4334   46.8730 O   0  0  0  0  0  0  0  0  0  0  0  0
   71.6750   53.2113   44.4551 C   0  0  0  0  0  0  0  0  0  0  0  0
   75.4796   53.5254   42.8818 N   0  0  0  0  0  0  0  0  0  0  0  0
   73.0677   53.9728   44.5424 C   0  0  0  0  0  0  0  0  0  0  0  0
   74.2704   58.2580   41.3561 C   0  0  0  0  0  0  0  0  0  0  0  0
  1 12  1  0
  1 18  1  0
  2  3  1  0
  2 17  1  0
  2 31  1  0
  3 26  1  0
  3 29  1  0
  4 21  2  0
  4 34  1  0
  5 16  2  0
  5 21  1  0
  5 22  1  0
  6 27  2  0
  6 33  1  0
  7 11  1  0
  7 26  1  0
  8 10  2  0
  8 18  1  0
  8 29  1  0
  9 22  2  0
  9 34  1  0
 10 12  1  0
 10 32  1  0
 11 28  1  0
 13 26  1  0
 13 28  1  0
 14 23  1  0
 14 31  1  0
 15 18  1  0
 16 33  2  0
 17 23  1  0
 19 20  1  0
 19 30  2  0
 19 31  1  0
 24 25  2  0
 24 27  1  0
 24 32  1  0
 31 33  1  0
M  END
>  <ID>  (1) 
conformer_0

$$$$
