
     RDKit          3D

 20 23  0  0  0  0  0  0  0  0999 V2000
   74.2149   57.7399   41.0034 C   0  0  0  0  0  0  0  0  0  0  0  0
   74.5032   58.0789   42.2848 C   0  0  0  0  0  0  0  0  0  0  0  0
   71.6559   53.0160   44.9697 C   0  0  0  0  0  0  0  0  0  0  0  0
   72.0526   54.1863   44.0497 C   0  0  0  0  0  0  0  0  0  0  0  0
   71.5083   52.6564   46.4436 C   0  0  0  0  0  0  0  0  0  0  0  0
   72.8677   55.9745   41.8166 C   0  0  0  0  0  0  0  0  0  0  0  0
   71.9308   54.9352   41.6491 C   0  0  0  0  0  0  0  0  0  0  0  0
   70.3134   52.0743   43.0738 C   0  0  0  0  0  0  0  0  0  0  0  0
   69.4305   51.1000   42.5726 C   0  0  0  0  0  0  0  0  0  0  0  0
   70.8535   53.0165   42.1714 C   0  0  0  0  0  0  0  0  0  0  0  0
   70.3230   52.6034   46.8592 O   0  0  0  0  0  0  0  0  0  0  0  0
   72.7645   55.4082   44.1693 N   0  0  0  0  0  0  0  0  0  0  0  0
   70.1126   53.6501   41.1839 C   0  0  0  0  0  0  0  0  0  0  0  0
   71.7584   53.9624   42.6734 C   0  0  0  0  0  0  0  0  0  0  0  0
   72.4622   52.0532   46.9721 O   0  0  0  0  0  0  0  0  0  0  0  0
   71.1044   51.8165   44.2541 C   0  0  0  0  0  0  0  0  0  0  0  0
   73.2266   56.2670   43.1420 C   0  0  0  0  0  0  0  0  0  0  0  0
   73.3803   56.6658   40.7577 C   0  0  0  0  0  0  0  0  0  0  0  0
   70.8714   54.7753   40.7844 C   0  0  0  0  0  0  0  0  0  0  0  0
   74.0256   57.3700   43.3532 C   0  0  0  0  0  0  0  0  0  0  0  0
  1  2  2  0
  1 18  1  0
  2 20  1  0
  3  4  1  0
  3  5  1  0
  3 16  1  0
  4 12  2  0
  4 14  1  0
  5 11  2  0
  5 15  1  0
  6  7  1  0
  6 17  1  0
  6 18  2  0
  7 14  1  0
  7 19  1  0
  8  9  1  0
  8 10  1  0
  8 16  1  0
 10 13  1  0
 10 14  1  0
 12 17  1  0
 13 19  1  0
 17 20  2  0
M  END
>  <ID>  (1) 
conformer_0

$$$$
