
     RDKit          3D

 20 21  0  0  0  0  0  0  0  0999 V2000
   70.5460   54.2055   42.0692 O   0  0  0  0  0  0  0  0  0  0  0  0
   73.8184   58.0782   42.6098 C   0  0  0  0  0  0  0  0  0  0  0  0
   68.7477   51.9236   43.6586 O   0  0  0  0  0  0  0  0  0  0  0  0
   71.8591   51.2469   44.5968 C   0  0  0  0  0  0  0  0  0  0  0  0
   72.8182   51.2353   45.3924 O   0  0  0  0  0  0  0  0  0  0  0  0
   70.9598   52.5009   44.4437 C   0  0  0  0  0  0  0  0  0  0  0  0
   72.7873   54.5898   42.8566 C   0  0  0  0  0  0  0  0  0  0  0  0
   71.8081   54.8318   45.1457 C   0  0  0  0  0  0  0  0  0  0  0  0
   73.9588   55.5618   42.6535 C   0  0  0  0  0  0  0  0  0  0  0  0
   72.2200   55.1596   40.4479 C   0  0  0  0  0  0  0  0  0  0  0  0
   73.1056   56.3816   40.4907 C   0  0  0  0  0  0  0  0  0  0  0  0
   73.0624   53.4703   43.5724 N   0  0  0  0  0  0  0  0  0  0  0  0
   70.2536   52.6964   45.8085 C   0  0  0  0  0  0  0  0  0  0  0  0
   70.2346   52.7696   41.9943 C   0  0  0  0  0  0  0  0  0  0  0  0
   71.8312   54.6078   41.7547 C   0  0  0  0  0  0  0  0  0  0  0  0
   73.5075   56.7897   41.8940 C   0  0  0  0  0  0  0  0  0  0  0  0
   75.2208   54.8960   42.0652 C   0  0  0  0  0  0  0  0  0  0  0  0
   71.9095   53.7158   44.1009 C   0  0  0  0  0  0  0  0  0  0  0  0
   69.9830   52.1796   43.3533 C   0  0  0  0  0  0  0  0  0  0  0  0
   71.4983   50.1639   44.0020 O   0  0  0  0  0  0  0  0  0  0  0  0
  1 14  1  0
  1 15  1  0
  2 16  1  0
  3 19  1  0
  4  5  2  0
  4  6  1  0
  4 20  1  0
  6 13  1  0
  6 18  1  0
  6 19  1  0
  7  9  1  0
  7 12  1  0
  7 15  1  0
  8 18  1  0
  9 16  1  0
  9 17  1  0
 10 11  1  0
 10 15  1  0
 11 16  1  0
 12 18  1  0
 14 19  1  0
M  END
>  <ID>  (1) 
conformer_0

$$$$
