
     RDKit          3D

 20 22  0  0  0  0  0  0  0  0999 V2000
   70.9607   51.6067   45.9393 C   0  0  0  0  0  0  0  0  0  0  0  0
   72.0817   54.0971   46.1600 C   0  0  0  0  0  0  0  0  0  0  0  0
   70.8215   52.5633   44.7685 N   0  0  0  0  0  0  0  0  0  0  0  0
   71.8907   55.0645   41.3353 C   0  0  0  0  0  0  0  0  0  0  0  0
   72.4725   55.3204   42.6251 C   0  0  0  0  0  0  0  0  0  0  0  0
   74.5751   56.7254   40.6026 C   0  0  0  0  0  0  0  0  0  0  0  0
   69.4076   52.0669   42.9038 N   0  0  0  0  0  0  0  0  0  0  0  0
   72.8967   55.2725   46.1144 C   0  0  0  0  0  0  0  0  0  0  0  0
   71.4950   51.0400   43.2158 O   0  0  0  0  0  0  0  0  0  0  0  0
   73.6594   56.5157   44.1339 N   0  0  0  0  0  0  0  0  0  0  0  0
   74.4553   56.8253   41.9689 C   0  0  0  0  0  0  0  0  0  0  0  0
   70.5811   51.8335   43.6195 C   0  0  0  0  0  0  0  0  0  0  0  0
   69.4599   51.3709   41.4766 C   0  0  0  0  0  0  0  0  0  0  0  0
   70.4273   54.5559   41.2463 C   0  0  0  0  0  0  0  0  0  0  0  0
   73.6407   56.0325   39.8526 C   0  0  0  0  0  0  0  0  0  0  0  0
   71.5996   53.7661   44.8445 C   0  0  0  0  0  0  0  0  0  0  0  0
   73.5097   56.2287   42.7949 C   0  0  0  0  0  0  0  0  0  0  0  0
   72.1804   54.7808   43.9391 N   0  0  0  0  0  0  0  0  0  0  0  0
   72.9585   55.6501   44.7785 C   0  0  0  0  0  0  0  0  0  0  0  0
   72.5333   55.3635   40.1411 C   0  0  0  0  0  0  0  0  0  0  0  0
  1  3  1  0
  2  8  1  0
  2 16  1  0
  3 12  1  0
  3 16  1  0
  4  5  1  0
  4 14  1  0
  4 20  1  0
  5 17  1  0
  5 18  1  0
  6 11  2  0
  6 15  1  0
  7 12  1  0
  7 13  1  0
  8 19  1  0
  9 12  2  0
 10 17  1  0
 10 19  2  0
 11 17  1  0
 15 20  2  0
 16 18  1  0
 18 19  1  0
M  END
>  <ID>  (1) 
conformer_0

$$$$
