
     RDKit          3D

 16 18  0  0  0  0  0  0  0  0999 V2000
   72.2178   53.9064   41.6280 C   0  0  0  0  0  0  0  0  0  0  0  0
   72.2409   54.5744   44.0673 C   0  0  0  0  0  0  0  0  0  0  0  0
   70.8530   53.6849   46.0921 C   0  0  0  0  0  0  0  0  0  0  0  0
   71.1404   52.2944   44.1649 C   0  0  0  0  0  0  0  0  0  0  0  0
   71.6465   52.6121   41.7499 C   0  0  0  0  0  0  0  0  0  0  0  0
   72.5358   54.7828   42.6986 C   0  0  0  0  0  0  0  0  0  0  0  0
   73.4135   56.6129   44.6398 C   0  0  0  0  0  0  0  0  0  0  0  0
   73.1998   55.9491   42.3461 C   0  0  0  0  0  0  0  0  0  0  0  0
   71.3961   51.7257   40.5968 C   0  0  0  0  0  0  0  0  0  0  0  0
   73.0486   55.4574   40.0039 C   0  0  0  0  0  0  0  0  0  0  0  0
   71.4433   53.5390   44.7219 C   0  0  0  0  0  0  0  0  0  0  0  0
   72.7251   55.4855   45.0134 C   0  0  0  0  0  0  0  0  0  0  0  0
   72.4620   54.2535   40.3223 C   0  0  0  0  0  0  0  0  0  0  0  0
   71.2498   51.9846   42.8996 C   0  0  0  0  0  0  0  0  0  0  0  0
   73.4421   56.2999   41.0205 C   0  0  0  0  0  0  0  0  0  0  0  0
   73.6629   56.8592   43.3064 C   0  0  0  0  0  0  0  0  0  0  0  0
  1  5  1  0
  1  6  1  0
  1 13  2  0
  2  6  2  0
  2 11  1  0
  2 12  1  0
  3 11  1  0
  4 11  2  0
  4 14  1  0
  5  9  1  0
  5 14  2  0
  6  8  1  0
  7 12  2  0
  7 16  1  0
  8 15  1  0
  8 16  2  0
 10 13  1  0
 10 15  2  0
M  END
>  <ID>  (1) 
conformer_0

$$$$
