
     RDKit          3D

 14 14  0  0  0  0  0  0  0  0999 V2000
   69.6896   51.5719   45.2751 C   0  0  0  0  0  0  0  0  0  0  0  0
   72.8714   55.9425   45.2501 C   0  0  0  0  0  0  0  0  0  0  0  0
   73.9033   53.3332   39.8434 C   0  0  0  0  0  0  0  0  0  0  0  0
   72.3928   54.6583   45.1585 C   0  0  0  0  0  0  0  0  0  0  0  0
   73.7532   55.8906   40.0447 C   0  0  0  0  0  0  0  0  0  0  0  0
   72.5954   54.8085   42.7528 C   0  0  0  0  0  0  0  0  0  0  0  0
   70.8503   52.0562   43.0768 C   0  0  0  0  0  0  0  0  0  0  0  0
   73.0157   54.5575   40.2416 C   0  0  0  0  0  0  0  0  0  0  0  0
   69.8366   51.2079   43.7869 C   0  0  0  0  0  0  0  0  0  0  0  0
   72.2904   54.0646   43.9217 C   0  0  0  0  0  0  0  0  0  0  0  0
   71.9769   52.5741   43.9197 C   0  0  0  0  0  0  0  0  0  0  0  0
   73.1403   56.0431   42.8814 C   0  0  0  0  0  0  0  0  0  0  0  0
   72.3413   54.2995   41.4871 N   0  0  0  0  0  0  0  0  0  0  0  0
   73.2699   56.6223   44.1310 C   0  0  0  0  0  0  0  0  0  0  0  0
  1  9  1  0
  2  4  2  0
  2 14  1  0
  3  8  1  0
  4 10  1  0
  5  8  1  0
  6 10  2  0
  6 12  1  0
  6 13  1  0
  7  9  1  0
  7 11  1  0
  8 13  1  0
 10 11  1  0
 12 14  2  0
M  END
>  <ID>  (1) 
conformer_0

$$$$
