
     RDKit          3D

 25 27  0  0  0  0  0  0  0  0999 V2000
   73.3879   56.3761   41.9399 C   0  0  0  0  0  0  0  0  0  0  0  0
   67.8275   53.9280   40.8864 C   0  0  0  0  0  0  0  0  0  0  0  0
   71.9877   52.4358   47.3456 C   0  0  0  0  0  0  0  0  0  0  0  0
   70.3133   50.4576   44.3918 O   0  0  0  0  0  1  0  0  0  0  0  0
   73.9629   57.5769   41.6096 C   0  0  0  0  0  0  0  0  0  0  0  0
   71.6480   52.0626   41.6151 C   0  0  0  0  0  0  0  0  0  0  0  0
   69.2643   52.7221   42.3335 N   0  0  0  0  0  0  0  0  0  0  0  0
   72.3272   54.4040   41.5380 C   0  0  0  0  0  0  0  0  0  0  0  0
   70.6085   51.9023   44.3739 S   0  0  0  0  0  4  0  0  0  0  0  0
   72.0103   52.1066   44.8977 N   0  0  0  0  0  0  0  0  0  0  0  0
   72.5695   52.8919   45.9413 C   0  0  0  0  0  0  0  0  0  0  0  0
   70.0279   54.1679   38.9478 C   0  0  0  0  0  0  0  0  0  0  0  0
   74.1497   52.5270   45.8374 C   0  0  0  0  0  0  0  0  0  0  0  0
   73.4174   55.6435   39.6575 C   0  0  0  0  0  0  0  0  0  0  0  0
   73.0307   55.8678   43.2020 C   0  0  0  0  0  0  0  0  0  0  0  0
   70.2596   53.2880   40.1063 C   0  0  0  0  0  0  0  0  0  0  0  0
   72.3962   54.6497   42.9361 C   0  0  0  0  0  0  0  0  0  0  0  0
   69.6296   52.7262   45.0912 O   0  0  0  0  0  1  0  0  0  0  0  0
   74.3142   57.7759   40.2955 C   0  0  0  0  0  0  0  0  0  0  0  0
   72.4607   54.4316   45.9380 C   0  0  0  0  0  0  0  0  0  0  0  0
   71.6384   53.3681   40.7076 C   0  0  0  0  0  0  0  0  0  0  0  0
   74.0703   56.8038   39.3397 C   0  0  0  0  0  0  0  0  0  0  0  0
   70.6174   52.3348   42.7068 C   0  0  0  0  0  0  0  0  0  0  0  0
   69.1056   53.1100   40.9626 C   0  0  0  0  0  0  0  0  0  0  0  0
   73.0582   55.4610   40.9648 C   0  0  0  0  0  0  0  0  0  0  0  0
  1  5  2  0
  1 15  1  0
  1 25  1  0
  2 24  1  0
  3 11  1  0
  4  9  1  0
  5 19  1  0
  6 21  1  0
  6 23  1  0
  7 23  1  0
  7 24  1  0
  8 17  1  0
  8 21  1  0
  8 25  1  0
  9 10  1  0
  9 18  1  0
  9 23  1  0
 10 11  1  0
 11 13  1  0
 11 20  1  0
 12 16  1  0
 14 22  1  0
 14 25  2  0
 15 17  1  0
 16 21  1  0
 16 24  1  0
 19 22  2  0
M  END
>  <ID>  (1) 
conformer_0

$$$$
