
     RDKit          3D

 27 30  0  0  0  0  0  0  0  0999 V2000
   73.2305   58.8144   41.5394 O   0  0  0  0  0  0  0  0  0  0  0  0
   68.5027   49.9834   44.0469 O   0  0  0  0  0  0  0  0  0  0  0  0
   72.4003   55.7761   41.1114 C   0  0  0  0  0  0  0  0  0  0  0  0
   70.4529   51.7287   42.5929 C   0  0  0  0  0  0  0  0  0  0  0  0
   73.4208   57.7574   42.1796 C   0  0  0  0  0  0  0  0  0  0  0  0
   70.1864   51.4866   45.1867 C   0  0  0  0  0  0  0  0  0  0  0  0
   70.1917   52.3273   46.3811 C   0  0  0  0  0  0  0  0  0  0  0  0
   74.6764   56.1123   40.3365 C   0  0  0  0  0  0  0  0  0  0  0  0
   71.8209   53.9973   45.5059 C   0  0  0  0  0  0  0  0  0  0  0  0
   72.1241   55.2956   45.8056 O   0  0  0  0  0  0  0  0  0  0  0  0
   71.6168   52.1143   41.6828 C   0  0  0  0  0  0  0  0  0  0  0  0
   72.9919   52.4035   39.6524 C   0  0  0  0  0  0  0  0  0  0  0  0
   73.2326   56.1011   45.4968 C   0  0  0  0  0  0  0  0  0  0  0  0
   71.5007   53.4831   41.3360 O   0  0  0  0  0  0  0  0  0  0  0  0
   73.6765   53.5868   40.3672 C   0  0  0  0  0  0  0  0  0  0  0  0
   72.6045   54.2851   41.1055 C   0  0  0  0  0  0  0  0  0  0  0  0
   73.6818   56.2717   44.1120 C   0  0  0  0  0  0  0  0  0  0  0  0
   69.0659   50.4857   45.1716 C   0  0  0  0  0  0  0  0  0  0  0  0
   74.7280   54.6004   39.8435 C   0  0  0  0  0  0  0  0  0  0  0  0
   71.5160   52.3867   40.2324 C   0  0  0  0  0  0  0  0  0  0  0  0
   73.7107   56.5192   41.4701 C   0  0  0  0  0  0  0  0  0  0  0  0
   71.5054   53.4528   44.2009 C   0  0  0  0  0  0  0  0  0  0  0  0
   71.3613   53.1266   46.5343 N   0  0  0  0  0  0  0  0  0  0  0  0
   70.6181   52.2429   43.9996 C   0  0  0  0  0  0  0  0  0  0  0  0
   72.5839   51.0340   41.8380 O   0  0  0  0  0  0  0  0  0  0  0  0
   69.3716   51.5026   41.8338 O   0  0  0  0  0  0  0  0  0  0  0  0
   73.3232   57.6229   43.5689 O   0  0  0  0  0  0  0  0  0  0  0  0
  1  5  2  0
  2 18  1  0
  3 16  1  0
  3 21  1  0
  4 11  1  0
  4 24  1  0
  4 26  1  0
  5 21  1  0
  5 27  1  0
  6  7  1  0
  6 18  1  0
  6 24  1  0
  7 23  1  0
  8 19  2  0
  8 21  1  0
  9 10  1  0
  9 22  1  0
  9 23  1  0
 10 13  1  0
 11 14  1  0
 11 20  1  0
 11 25  1  0
 12 15  1  0
 12 20  1  0
 13 17  1  0
 14 16  1  0
 15 16  1  0
 15 19  1  0
 17 27  1  0
 22 24  2  0
M  END
>  <ID>  (1) 
conformer_0

$$$$
