
     RDKit          3D

 14 15  0  0  0  0  0  0  0  0999 V2000
   71.4842   54.5099   40.8890 C   0  0  0  0  0  0  0  0  0  0  0  0
   69.8534   52.9248   41.4285 O   0  0  0  0  0  0  0  0  0  0  0  0
   72.2160   54.7225   43.5824 C   0  0  0  0  0  0  0  0  0  0  0  0
   73.6906   56.7273   42.8782 C   0  0  0  0  0  0  0  0  0  0  0  0
   70.8131   53.7436   41.8183 C   0  0  0  0  0  0  0  0  0  0  0  0
   70.5106   53.0127   44.0253 N   0  0  0  0  0  0  0  0  0  0  0  0
   71.8886   53.7878   45.7846 C   0  0  0  0  0  0  0  0  0  0  0  0
   73.4507   57.4655   43.8952 O   0  0  0  0  0  0  0  0  0  0  0  0
   74.6196   57.0241   42.0011 O   0  0  0  0  0  0  0  0  0  0  0  0
   72.5653   54.6343   44.9291 C   0  0  0  0  0  0  0  0  0  0  0  0
   71.1948   53.8464   43.1687 C   0  0  0  0  0  0  0  0  0  0  0  0
   72.7957   55.5763   42.6061 C   0  0  0  0  0  0  0  0  0  0  0  0
   70.8532   53.0068   45.3374 C   0  0  0  0  0  0  0  0  0  0  0  0
   72.4442   55.4039   41.2803 C   0  0  0  0  0  0  0  0  0  0  0  0
  1  5  2  0
  1 14  1  0
  2  5  1  0
  3 10  1  0
  3 11  2  0
  3 12  1  0
  4  8  2  0
  4  9  1  0
  4 12  1  0
  5 11  1  0
  6 11  1  0
  6 13  2  0
  7 10  2  0
  7 13  1  0
 12 14  2  0
M  END
>  <ID>  (1) 
conformer_0

$$$$
