
     RDKit          3D

 15 15  0  0  0  0  0  0  0  0999 V2000
   71.5872   52.6843   41.3520 C   0  0  0  0  0  0  0  0  0  0  0  0
   71.9702   55.6500   45.6047 O   0  0  0  0  0  0  0  0  0  0  0  0
   72.6167   54.5717   42.4765 C   0  0  0  0  0  0  0  0  0  0  0  0
   72.5837   54.5309   45.0487 C   0  0  0  0  0  0  0  0  0  0  0  0
   69.9436   51.1764   42.5541 C   0  0  0  0  0  0  0  0  0  0  0  0
   71.2488   53.0131   43.7038 C   0  0  0  0  0  0  0  0  0  0  0  0
   70.9343   52.3229   42.5575 C   0  0  0  0  0  0  0  0  0  0  0  0
   72.1276   54.0791   43.7123 C   0  0  0  0  0  0  0  0  0  0  0  0
   73.6123   56.6430   43.3647 O   0  0  0  0  0  0  0  0  0  0  0  0
   73.9827   55.4644   39.8172 C   0  0  0  0  0  0  0  0  0  0  0  0
   69.4618   50.7773   43.8295 N   0  0  0  0  0  0  0  0  0  0  0  0
   73.7382   56.3622   41.0101 C   0  0  0  0  0  0  0  0  0  0  0  0
   72.3938   53.7957   41.3479 C   0  0  0  0  0  0  0  0  0  0  0  0
   73.4851   57.8336   40.8100 C   0  0  0  0  0  0  0  0  0  0  0  0
   73.3439   55.8847   42.3722 C   0  0  0  0  0  0  0  0  0  0  0  0
  1  7  1  0
  1 13  2  0
  2  4  1  0
  3  8  1  0
  3 13  1  0
  3 15  1  0
  4  8  1  0
  5  7  2  3
  5 11  1  0
  6  7  1  0
  6  8  2  0
  9 15  2  0
 10 12  1  0
 12 14  1  0
 12 15  1  0
M  END
>  <ID>  (1) 
conformer_0

$$$$
