
     RDKit          3D

 21 23  0  0  0  0  0  0  0  0999 V2000
   74.7858   55.3427   38.7261 C   0  0  0  0  0  0  0  0  0  0  0  0
   70.0192   52.8602   47.7826 C   0  0  0  0  0  0  0  0  0  0  0  0
   71.5607   53.3396   42.2497 C   0  0  0  0  0  0  0  0  0  0  0  0
   71.5382   53.1128   40.8397 C   0  0  0  0  0  0  0  0  0  0  0  0
   73.5712   57.6110   41.7363 C   0  0  0  0  0  0  0  0  0  0  0  0
   69.2859   51.6010   44.7386 C   0  0  0  0  0  0  0  0  0  0  0  0
   75.7546   55.5281   41.0035 C   0  0  0  0  0  0  0  0  0  0  0  0
   73.2984   54.8867   40.6216 C   0  0  0  0  0  0  0  0  0  0  0  0
   74.4549   55.7907   40.1691 C   0  0  0  0  0  0  0  0  0  0  0  0
   73.0010   55.3157   41.9707 C   0  0  0  0  0  0  0  0  0  0  0  0
   73.6885   56.4587   42.6342 C   0  0  0  0  0  0  0  0  0  0  0  0
   70.4192   52.0817   45.5348 C   0  0  0  0  0  0  0  0  0  0  0  0
   71.5235   52.4132   44.6130 C   0  0  0  0  0  0  0  0  0  0  0  0
   72.3096   54.4467   42.8685 C   0  0  0  0  0  0  0  0  0  0  0  0
   70.8772   52.6281   43.3031 C   0  0  0  0  0  0  0  0  0  0  0  0
   69.6296   51.9033   43.2816 C   0  0  0  0  0  0  0  0  0  0  0  0
   73.8941   57.2474   40.3145 C   0  0  0  0  0  0  0  0  0  0  0  0
   72.6770   53.6816   40.0805 C   0  0  0  0  0  0  0  0  0  0  0  0
   72.0416   51.6432   47.1766 O   0  0  0  0  0  0  0  0  0  0  0  0
   70.8290   52.0441   46.9270 C   0  0  0  0  0  0  0  0  0  0  0  0
   72.2524   54.8577   44.1114 O   0  0  0  0  0  0  0  0  0  0  0  0
  1  9  1  0
  2 20  1  0
  3  4  1  0
  3 14  2  0
  3 15  1  0
  4 18  1  0
  5 11  1  0
  5 17  1  0
  6 12  1  0
  6 16  1  0
  7  9  1  0
  8  9  1  0
  8 10  1  0
  8 18  2  0
  9 17  1  0
 10 11  1  0
 10 14  1  0
 12 13  1  0
 12 20  1  0
 13 15  1  0
 14 21  1  0
 15 16  1  0
 19 20  1  0
M  END
>  <ID>  (1) 
conformer_0

$$$$
