
     RDKit          3D

 19 21  0  0  0  0  0  0  0  0999 V2000
   73.3283   52.7712   40.9397 C   0  0  0  0  0  0  0  0  0  0  0  0
   72.6081   55.0725   40.8517 C   0  0  0  0  0  0  0  0  0  0  0  0
   72.6002   54.5515   39.4624 C   0  0  0  0  0  0  0  0  0  0  0  0
   73.5877   56.1087   41.1524 C   0  0  0  0  0  0  0  0  0  0  0  0
   70.3297   52.1597   44.5576 C   0  0  0  0  0  0  0  0  0  0  0  0
   73.3303   57.1750   42.0465 C   0  0  0  0  0  0  0  0  0  0  0  0
   72.1057   53.6930   45.3210 C   0  0  0  0  0  0  0  0  0  0  0  0
   74.1097   52.2088   43.9098 C   0  0  0  0  0  0  0  0  0  0  0  0
   72.6537   52.9409   44.0426 C   0  0  0  0  0  0  0  0  0  0  0  0
   73.1774   55.5021   43.7294 C   0  0  0  0  0  0  0  0  0  0  0  0
   73.2702   58.5434   41.6152 C   0  0  0  0  0  0  0  0  0  0  0  0
   71.6958   51.6330   44.1712 C   0  0  0  0  0  0  0  0  0  0  0  0
   72.9795   54.2187   43.1050 C   0  0  0  0  0  0  0  0  0  0  0  0
   73.1384   56.8096   43.3710 O   0  0  0  0  0  0  0  0  0  0  0  0
   72.4708   53.8375   41.7409 C   0  0  0  0  0  0  0  0  0  0  0  0
   71.2024   53.4100   41.7757 O   0  0  0  0  0  0  0  0  0  0  0  0
   72.8211   53.0588   39.5466 C   0  0  0  0  0  0  0  0  0  0  0  0
   70.6296   53.3514   45.4804 C   0  0  0  0  0  0  0  0  0  0  0  0
   72.1334   50.8340   45.4410 C   0  0  0  0  0  0  0  0  0  0  0  0
  1 15  1  0
  1 17  1  0
  2  3  1  0
  2  4  1  0
  2 15  1  0
  3 17  1  0
  4  6  1  0
  5 12  1  0
  5 18  1  0
  6 11  1  0
  6 14  1  0
  7  9  1  0
  7 18  1  0
  8  9  1  0
  9 12  1  0
  9 13  1  0
 10 13  1  0
 10 14  1  0
 12 19  1  0
 13 15  1  0
 15 16  1  0
M  END
>  <ID>  (1) 
conformer_0

$$$$
