
     RDKit          3D

 28 33  0  0  0  0  0  0  0  0999 V2000
   69.1708   52.2009   42.4665 O   0  0  0  0  0  0  0  0  0  0  0  0
   73.2571   54.3044   46.4493 C   0  0  0  0  0  0  0  0  0  0  0  0
   72.2983   55.4989   40.7279 C   0  0  0  0  0  0  0  0  0  0  0  0
   71.5197   51.3423   44.9356 C   0  0  0  0  0  0  0  0  0  0  0  0
   71.1782   54.4220   41.0720 C   0  0  0  0  0  0  0  0  0  0  0  0
   71.0241   51.5659   41.1050 C   0  0  0  0  0  0  0  0  0  0  0  0
   72.8653   53.1503   39.0446 C   0  0  0  0  0  0  0  0  0  0  0  0
   72.6583   52.1119   45.5794 C   0  0  0  0  0  0  0  0  0  0  0  0
   74.1431   52.0418   40.9634 C   0  0  0  0  0  0  0  0  0  0  0  0
   71.3753   51.8047   43.5170 C   0  0  0  0  0  0  0  0  0  0  0  0
   73.9045   54.4068   45.3016 C   0  0  0  0  0  0  0  0  0  0  0  0
   69.7236   50.0395   43.3425 C   0  0  0  0  0  0  0  0  0  0  0  0
   73.9001   57.7293   43.4510 C   0  0  0  0  0  0  0  0  0  0  0  0
   72.3732   56.6531   41.7899 C   0  0  0  0  0  0  0  0  0  0  0  0
   71.7784   52.9646   41.3163 C   0  0  0  0  0  0  0  0  0  0  0  0
   73.0545   54.0907   43.1302 C   0  0  0  0  0  0  0  0  0  0  0  0
   70.3041   51.3288   42.5942 C   0  0  0  0  0  0  0  0  0  0  0  0
   73.6430   56.4039   42.7080 C   0  0  0  0  0  0  0  0  0  0  0  0
   72.2495   52.8281   42.8574 C   0  0  0  0  0  0  0  0  0  0  0  0
   73.7371   54.7315   40.7357 C   0  0  0  0  0  0  0  0  0  0  0  0
   75.6192   56.4836   41.0831 C   0  0  0  0  0  0  0  0  0  0  0  0
   70.1090   51.3774   45.5681 C   0  0  0  0  0  0  0  0  0  0  0  0
   73.6662   51.4577   45.9628 O   0  0  0  0  0  0  0  0  0  0  0  0
   73.5523   55.3057   43.9907 C   0  0  0  0  0  0  0  0  0  0  0  0
   74.6145   55.6142   41.7029 C   0  0  0  0  0  0  0  0  0  0  0  0
   73.2267   53.2059   40.5587 C   0  0  0  0  0  0  0  0  0  0  0  0
   69.2404   50.5500   44.6947 O   0  0  0  0  0  0  0  0  0  0  0  0
   72.6642   53.5753   45.5072 C   0  0  0  0  0  0  0  0  0  0  0  0
  1 17  1  0
  2 11  1  0
  2 28  1  0
  3  5  1  0
  3 14  1  0
  3 20  1  0
  4  8  1  0
  4 10  1  0
  4 22  1  0
  5 15  1  0
  6 15  1  0
  6 17  1  0
  7 26  1  0
  8 23  2  0
  8 28  1  0
  9 26  1  0
 10 17  1  0
 10 19  1  0
 11 24  1  0
 12 17  1  0
 12 27  1  0
 13 18  1  0
 14 18  1  0
 15 19  1  0
 15 26  1  0
 16 19  2  0
 16 24  2  0
 18 24  1  0
 18 25  1  0
 20 25  1  0
 20 26  1  0
 21 25  1  0
 22 27  1  0
M  END
>  <ID>  (1) 
conformer_0

$$$$
