
     RDKit          3D

 19 22  0  0  0  0  0  0  0  0999 V2000
   73.6509   54.0424   39.9330 C   0  0  0  0  0  0  0  0  0  0  0  0
   71.4883   52.8576   42.5900 C   0  0  0  0  0  0  0  0  0  0  0  0
   74.3800   55.1716   39.6295 C   0  0  0  0  0  0  0  0  0  0  0  0
   72.0878   51.7599   40.5938 C   0  0  0  0  0  0  0  0  0  0  0  0
   74.2574   56.3213   40.4132 C   0  0  0  0  0  0  0  0  0  0  0  0
   71.7537   52.4786   47.5071 C   0  0  0  0  0  0  0  0  0  0  0  0
   72.8681   54.0555   41.0830 C   0  0  0  0  0  0  0  0  0  0  0  0
   72.9013   51.7509   39.4242 C   0  0  0  0  0  0  0  0  0  0  0  0
   72.8403   55.1596   41.9343 C   0  0  0  0  0  0  0  0  0  0  0  0
   72.2720   55.0544   43.1842 O   0  0  0  0  0  0  0  0  0  0  0  0
   71.7437   53.8083   43.5796 C   0  0  0  0  0  0  0  0  0  0  0  0
   72.2657   52.1479   45.2644 C   0  0  0  0  0  0  0  0  0  0  0  0
   71.1957   53.6782   47.2374 C   0  0  0  0  0  0  0  0  0  0  0  0
   71.6997   53.3673   44.9528 C   0  0  0  0  0  0  0  0  0  0  0  0
   72.1311   52.9133   41.4146 C   0  0  0  0  0  0  0  0  0  0  0  0
   73.4633   56.3368   41.5734 C   0  0  0  0  0  0  0  0  0  0  0  0
   71.1644   54.1296   45.9326 C   0  0  0  0  0  0  0  0  0  0  0  0
   72.3061   51.7265   46.5268 N   0  0  0  0  0  0  0  0  0  0  0  0
   73.6909   52.8998   39.1299 C   0  0  0  0  0  0  0  0  0  0  0  0
  1  3  2  0
  1  7  1  0
  1 19  1  0
  2 11  1  0
  2 15  2  0
  3  5  1  0
  4  8  1  0
  4 15  1  0
  5 16  1  0
  6 13  2  0
  6 18  1  0
  7  9  1  0
  7 15  1  0
  8 19  2  0
  9 10  1  0
  9 16  2  0
 10 11  1  0
 11 14  1  0
 12 14  1  0
 12 18  2  0
 13 17  1  0
 14 17  2  0
M  END
>  <ID>  (1) 
conformer_0

$$$$
