
     RDKit          3D

 28 31  0  0  0  0  0  0  0  0999 V2000
   73.9686   58.1865   41.3183 C   0  0  0  0  0  0  0  0  0  0  0  0
   72.8632   53.4717   40.9618 C   0  0  0  0  0  0  0  0  0  0  0  0
   74.6908   58.6081   42.3984 C   0  0  0  0  0  0  0  0  0  0  0  0
   72.7049   53.3430   46.8146 C   0  0  0  0  0  0  0  0  0  0  0  0
   73.2989   53.1484   39.6709 C   0  0  0  0  0  0  0  0  0  0  0  0
   72.3054   54.7804   45.0248 C   0  0  0  0  0  0  0  0  0  0  0  0
   72.7893   54.5990   46.2916 C   0  0  0  0  0  0  0  0  0  0  0  0
   71.1791   52.1253   39.2218 C   0  0  0  0  0  0  0  0  0  0  0  0
   73.2311   57.0203   41.3837 C   0  0  0  0  0  0  0  0  0  0  0  0
   71.7925   53.7668   44.2543 C   0  0  0  0  0  0  0  0  0  0  0  0
   70.7193   52.5277   40.4944 C   0  0  0  0  0  0  0  0  0  0  0  0
   71.4787   52.6138   44.9267 C   0  0  0  0  0  0  0  0  0  0  0  0
   74.7006   57.8920   43.5865 C   0  0  0  0  0  0  0  0  0  0  0  0
   70.1471   52.5107   43.1073 C   0  0  0  0  0  0  0  0  0  0  0  0
   73.9808   56.7521   43.6447 C   0  0  0  0  0  0  0  0  0  0  0  0
   70.5717   51.8133   44.2189 C   0  0  0  0  0  0  0  0  0  0  0  0
   73.6579   54.0534   41.9872 C   0  0  0  0  0  0  0  0  0  0  0  0
   71.5806   53.2091   41.3636 C   0  0  0  0  0  0  0  0  0  0  0  0
   68.9826   52.3443   42.6564 O   0  0  0  0  0  0  0  0  0  0  0  0
   72.0842   52.3791   46.1071 N   0  0  0  0  0  0  0  0  0  0  0  0
   68.7487   51.7942   46.3579 C   0  0  0  0  0  0  0  0  0  0  0  0
   70.0229   50.4453   44.5211 C   0  0  0  0  0  0  0  0  0  0  0  0
   74.5785   53.6766   39.2574 Cl  0  0  0  0  0  0  0  0  0  0  0  0
   68.9306   50.4539   45.5998 C   0  0  0  0  0  0  0  0  0  0  0  0
   72.6165   55.0386   42.5685 N   0  0  0  0  0  0  0  0  0  0  0  0
   72.4859   52.4331   38.8259 C   0  0  0  0  0  0  0  0  0  0  0  0
   73.2447   56.2880   42.5744 C   0  0  0  0  0  0  0  0  0  0  0  0
   71.3243   53.6648   42.8021 C   0  0  0  0  0  0  0  0  0  0  0  0
  1  3  2  0
  1  9  1  0
  2  5  2  0
  2 17  1  0
  2 18  1  0
  3 13  1  0
  4  7  1  0
  4 20  2  0
  5 23  1  0
  5 26  1  0
  6  7  2  0
  6 10  1  0
  8 11  1  0
  8 26  2  0
  9 27  2  0
 10 12  1  0
 10 28  1  0
 11 18  2  0
 12 16  2  0
 12 20  1  0
 13 15  2  0
 14 16  1  0
 14 19  2  0
 14 28  1  0
 15 27  1  0
 16 22  1  0
 17 25  1  0
 18 28  1  0
 21 24  1  0
 22 24  1  0
 25 27  1  0
M  END
>  <ID>  (1) 
conformer_0

$$$$
