
     RDKit          3D

 20 22  0  0  0  0  0  0  0  0999 V2000
   72.5709   51.8047   45.7436 N   0  0  0  0  0  0  0  0  0  0  0  0
   69.3314   51.0465   44.0126 C   0  0  0  0  0  0  0  0  0  0  0  0
   74.2186   57.1116   40.7929 C   0  0  0  0  0  0  0  0  0  0  0  0
   73.0170   57.5739   41.2790 C   0  0  0  0  0  0  0  0  0  0  0  0
   70.6566   50.6507   44.6294 C   0  0  0  0  0  0  0  0  0  0  0  0
   71.0531   53.1082   44.4832 C   0  0  0  0  0  0  0  0  0  0  0  0
   73.3713   55.4830   46.1745 C   0  0  0  0  0  0  0  0  0  0  0  0
   71.5859   54.2926   45.0182 C   0  0  0  0  0  0  0  0  0  0  0  0
   74.3841   55.7826   40.4098 C   0  0  0  0  0  0  0  0  0  0  0  0
   73.1586   52.9326   46.1576 C   0  0  0  0  0  0  0  0  0  0  0  0
   72.6972   54.1736   45.8015 C   0  0  0  0  0  0  0  0  0  0  0  0
   73.3103   54.9162   40.5285 C   0  0  0  0  0  0  0  0  0  0  0  0
   72.1085   55.4091   41.0043 C   0  0  0  0  0  0  0  0  0  0  0  0
   70.9983   54.4707   41.2924 C   0  0  0  0  0  0  0  0  0  0  0  0
   71.3157   53.4207   42.2191 C   0  0  0  0  0  0  0  0  0  0  0  0
   69.4528   52.0618   42.9819 N   0  0  0  0  0  0  0  0  0  0  0  0
   69.7805   54.7165   41.0385 O   0  0  0  0  0  0  0  0  0  0  0  0
   71.9595   56.7311   41.3671 C   0  0  0  0  0  0  0  0  0  0  0  0
   71.4451   51.8713   44.9479 C   0  0  0  0  0  0  0  0  0  0  0  0
   70.2324   53.2265   43.2902 N   0  0  0  0  0  0  0  0  0  0  0  0
  1 10  2  0
  1 19  1  0
  2  5  1  0
  2 16  1  0
  3  4  2  0
  3  9  1  0
  4 18  1  0
  5 19  1  0
  6  8  1  0
  6 19  1  0
  6 20  1  0
  7 11  1  0
  8 11  2  0
  9 12  2  0
 10 11  1  0
 12 13  1  0
 13 14  1  0
 13 18  2  0
 14 15  1  0
 14 17  2  0
 15 20  1  0
 16 20  1  0
M  END
>  <ID>  (1) 
conformer_0

$$$$
