
     RDKit          3D

 27 30  0  0  0  0  0  0  0  0999 V2000
   69.8991   51.5112   41.4365 C   0  0  0  0  0  0  0  0  0  0  0  0
   74.7027   55.3857   40.4774 C   0  0  0  0  0  0  0  0  0  0  0  0
   74.5896   57.4866   41.6662 N   0  0  0  0  0  0  0  0  0  0  0  0
   70.9160   51.8063   43.7034 C   0  0  0  0  0  0  0  0  0  0  0  0
   73.4924   55.5691   42.4360 N   0  0  0  0  0  0  0  0  0  0  0  0
   74.1379   54.3561   44.5110 C   0  0  0  0  0  0  0  0  0  0  0  0
   69.2256   52.8745   41.6836 C   0  0  0  0  0  0  0  0  0  0  0  0
   73.7620   53.4257   45.4634 C   0  0  0  0  0  0  0  0  0  0  0  0
   69.1658   53.6960   40.4398 C   0  0  0  0  0  0  0  0  0  0  0  0
   75.1457   56.6853   40.6361 C   0  0  0  0  0  0  0  0  0  0  0  0
   73.1254   57.6630   43.4014 O   0  0  0  0  0  0  0  0  0  0  0  0
   72.2360   53.7465   43.2864 C   0  0  0  0  0  0  0  0  0  0  0  0
   72.5589   52.7642   45.3766 C   0  0  0  0  0  0  0  0  0  0  0  0
   71.1737   51.0774   42.3427 C   0  0  0  0  0  0  0  0  0  0  0  0
   72.8075   51.7792   47.4378 O   0  0  0  0  0  0  0  0  0  0  0  0
   71.8588   52.7747   44.1384 C   0  0  0  0  0  0  0  0  0  0  0  0
   69.7420   51.4641   45.7427 C   0  0  0  0  0  0  0  0  0  0  0  0
   71.3190   54.6821   39.8864 C   0  0  0  0  0  0  0  0  0  0  0  0
   73.7445   56.9415   42.5286 C   0  0  0  0  0  0  0  0  0  0  0  0
   72.5227   54.1085   40.5802 C   0  0  0  0  0  0  0  0  0  0  0  0
   73.2699   54.5893   43.4390 C   0  0  0  0  0  0  0  0  0  0  0  0
   70.6801   51.7287   46.6252 C   0  0  0  0  0  0  0  0  0  0  0  0
   75.5640   54.2476   39.8935 C   0  0  0  0  0  0  0  0  0  0  0  0
   73.5613   55.0324   41.1365 C   0  0  0  0  0  0  0  0  0  0  0  0
   69.9987   54.9342   40.5297 C   0  0  0  0  0  0  0  0  0  0  0  0
   72.0061   52.1053   46.5031 N   0  0  0  0  0  0  0  0  0  0  0  0
   69.8074   51.4447   44.3994 N   0  0  0  0  0  0  0  0  0  0  0  0
  1  7  1  0
  1 14  1  0
  2 10  1  0
  2 23  1  0
  2 24  1  0
  3 10  2  0
  3 19  1  0
  4 14  1  0
  4 16  1  0
  4 27  1  0
  5 19  1  0
  5 21  1  0
  5 24  1  0
  6  8  2  0
  6 21  1  0
  7  9  1  0
  8 13  1  0
  9 25  1  0
 11 19  2  0
 12 16  1  0
 12 21  2  0
 13 16  1  0
 13 26  1  0
 15 26  1  0
 17 22  2  0
 17 27  1  0
 18 20  1  0
 18 25  1  0
 20 24  1  0
 22 26  1  0
M  END
>  <ID>  (1) 
conformer_0

$$$$
