
     RDKit          3D

 35 37  0  0  0  0  0  0  0  0999 V2000
   73.0877   55.3963   42.0533 C   0  0  0  0  0  0  0  0  0  0  0  0
   74.7650   58.6059   41.7326 O   0  0  0  0  0  0  0  0  0  0  0  0
   69.7005   52.9993   46.2782 O   0  0  0  0  0  0  0  0  0  0  0  0
   71.6038   54.2408   39.4619 C   0  0  0  0  0  0  0  0  0  0  0  0
   72.5015   52.6467   41.1386 O   0  0  0  0  0  0  0  0  0  0  0  0
   74.0184   50.2698   42.4385 C   0  0  0  0  0  0  0  0  0  0  0  0
   73.3140   56.6834   41.6197 C   0  0  0  0  0  0  0  0  0  0  0  0
   72.6142   53.0313   39.6589 C   0  0  0  0  0  0  0  0  0  0  0  0
   74.5061   53.6748   46.4071 C   0  0  0  0  0  0  0  0  0  0  0  0
   71.3625   53.0920   41.9455 C   0  0  0  0  0  0  0  0  0  0  0  0
   73.3061   53.4657   45.4770 C   0  0  0  0  0  0  0  0  0  0  0  0
   70.0932   53.5646   41.2835 C   0  0  0  0  0  0  0  0  0  0  0  0
   72.5434   49.2330   40.8270 C   0  0  0  0  0  0  0  0  0  0  0  0
   74.9287   55.4067   43.5435 C   0  0  0  0  0  0  0  0  0  0  0  0
   75.7483   53.9712   45.6213 C   0  0  0  0  0  0  0  0  0  0  0  0
   70.5901   53.5799   44.3029 N   0  0  0  0  0  0  0  0  0  0  0  0
   71.3298   49.2297   40.2651 O   0  0  0  0  0  0  0  0  0  0  0  0
   70.3736   52.0704   39.2935 C   0  0  0  0  0  0  0  0  0  0  0  0
   74.2457   51.0729   43.6609 C   0  0  0  0  0  0  0  0  0  0  0  0
   70.2137   53.5722   39.7717 C   0  0  0  0  0  0  0  0  0  0  0  0
   72.0773   54.4252   47.2381 O   0  0  0  0  0  0  0  0  0  0  0  0
   75.6856   54.8877   44.5801 O   0  0  0  0  0  0  0  0  0  0  0  0
   74.4316   57.3461   42.1180 C   0  0  0  0  0  0  0  0  0  0  0  0
   73.6001   52.2867   44.5383 C   0  0  0  0  0  0  0  0  0  0  0  0
   73.9129   54.7553   42.9147 C   0  0  0  0  0  0  0  0  0  0  0  0
   72.7269   49.6385   42.2172 C   0  0  0  0  0  0  0  0  0  0  0  0
   71.7165   49.0895   43.1518 C   0  0  0  0  0  0  0  0  0  0  0  0
   70.7372   53.3263   45.6501 C   0  0  0  0  0  0  0  0  0  0  0  0
   71.0444   52.5613   43.3013 C   0  0  0  0  0  0  0  0  0  0  0  0
   72.1872   51.0904   37.7904 C   0  0  0  0  0  0  0  0  0  0  0  0
   72.0387   53.4525   46.2652 C   0  0  0  0  0  0  0  0  0  0  0  0
   71.8328   51.9379   38.8973 C   0  0  0  0  0  0  0  0  0  0  0  0
   76.2435   57.3346   43.7023 O   0  0  0  0  0  0  0  0  0  0  0  0
   75.1999   56.6895   43.1011 C   0  0  0  0  0  0  0  0  0  0  0  0
   75.2703   58.9888   40.5325 C   0  0  0  0  0  0  0  0  0  0  0  0
  1  7  2  0
  1 25  1  0
  2 23  1  0
  2 35  1  0
  3 28  2  0
  4  8  1  0
  4 20  1  0
  5  8  1  0
  5 10  1  0
  6 19  1  0
  6 26  1  0
  7 23  1  0
  8 32  1  0
  9 11  1  0
  9 15  1  0
 10 12  1  0
 10 29  1  0
 11 24  1  0
 11 31  1  0
 12 20  1  0
 13 17  1  0
 13 26  1  0
 14 22  1  0
 14 25  2  0
 14 34  1  0
 15 22  1  0
 16 28  1  0
 16 29  1  0
 18 20  1  0
 18 32  1  0
 19 24  1  0
 21 31  1  0
 23 34  2  0
 26 27  1  0
 28 31  1  0
 30 32  1  0
 33 34  1  0
M  END
>  <ID>  (1) 
conformer_0

$$$$
