
     RDKit          3D

 31 32  0  0  0  0  0  0  0  0999 V2000
   71.7914   53.9909   46.1371 C   0  0  0  0  0  0  0  0  0  0  0  0
   74.5783   54.9582   39.1657 C   0  0  0  0  0  0  0  0  0  0  0  0
   74.5835   56.5527   40.9676 C   0  0  0  0  0  0  0  0  0  0  0  0
   72.5759   56.8565   42.1611 F   0  0  0  0  0  0  0  0  0  0  0  0
   70.5719   53.5627   46.9364 C   0  0  0  0  0  0  0  0  0  0  0  0
   73.2816   56.2539   41.1847 C   0  0  0  0  0  0  0  0  0  0  0  0
   70.1751   54.6460   40.5631 C   0  0  0  0  0  0  0  0  0  0  0  0
   69.6185   53.3551   41.0230 C   0  0  0  0  0  0  0  0  0  0  0  0
   74.6695   56.7893   44.4409 C   0  0  0  0  0  0  0  0  0  0  0  0
   71.4402   54.9267   40.9378 O   0  0  0  0  0  0  0  0  0  0  0  0
   72.6441   55.2965   40.4543 C   0  0  0  0  0  0  0  0  0  0  0  0
   70.5345   51.4475   42.2666 C   0  0  0  0  0  0  0  0  0  0  0  0
   73.2481   54.7098   39.3851 C   0  0  0  0  0  0  0  0  0  0  0  0
   73.1491   53.2338   46.7263 S   0  0  0  0  0  3  0  0  0  0  0  0
   70.8133   52.0939   44.6984 C   0  0  0  0  0  0  0  0  0  0  0  0
   75.2556   55.8666   39.9519 C   0  0  0  0  0  0  0  0  0  0  0  0
   74.1912   54.4907   44.4007 O   0  0  0  0  0  0  0  0  0  0  0  0
   68.2844   53.2989   41.2317 O   0  0  0  0  0  0  0  0  0  0  0  0
   72.7146   52.6243   42.0526 C   0  0  0  0  0  0  0  0  0  0  0  0
   73.3049   55.8913   46.3062 C   0  0  0  0  0  0  0  0  0  0  0  0
   71.5827   50.8170   44.2653 C   0  0  0  0  0  0  0  0  0  0  0  0
   70.0545   52.2249   40.0924 C   0  0  0  0  0  0  0  0  0  0  0  0
   74.5981   53.2229   46.9381 O   0  0  0  0  0  1  0  0  0  0  0  0
   70.0148   51.0007   40.9460 C   0  0  0  0  0  0  0  0  0  0  0  0
   71.5224   53.4836   44.7250 C   0  0  0  0  0  0  0  0  0  0  0  0
   72.6961   54.7916   47.0262 C   0  0  0  0  0  0  0  0  0  0  0  0
   71.1799   50.2550   42.9797 C   0  0  0  0  0  0  0  0  0  0  0  0
   72.8243   51.8091   46.9384 O   0  0  0  0  0  0  0  0  0  0  0  0
   70.1884   53.0574   42.4125 C   0  0  0  0  0  0  0  0  0  0  0  0
   71.3928   52.5391   42.2901 C   0  0  0  0  0  0  0  0  0  0  0  0
   73.9296   55.6646   44.9814 C   0  0  0  0  0  0  0  0  0  0  0  0
  1  5  1  0
  1 25  1  0
  1 26  1  0
  2 13  2  0
  2 16  1  0
  3  6  1  0
  3 16  2  0
  4  6  1  0
  6 11  2  0
  7  8  1  0
  7 10  1  0
  8 18  1  0
  8 22  1  0
  8 29  1  0
  9 31  1  0
 10 11  1  0
 11 13  1  0
 12 24  1  0
 12 27  1  0
 12 30  1  0
 14 23  2  0
 14 26  1  0
 14 28  1  0
 15 21  1  0
 15 25  1  0
 17 31  1  0
 19 30  2  0
 20 26  1  0
 20 31  2  3
 21 27  1  0
 22 24  1  0
 29 30  1  0
M  END
>  <ID>  (1) 
conformer_0

$$$$
