
     RDKit          3D

 12 11  0  0  0  0  0  0  0  0999 V2000
   72.1699   51.7669   46.0588 O   0  0  0  0  0  0  0  0  0  0  0  0
   73.0133   56.3881   41.6215 C   0  0  0  0  0  0  0  0  0  0  0  0
   71.1069   54.6726   41.2709 C   0  0  0  0  0  0  0  0  0  0  0  0
   71.9829   52.5047   45.0261 C   0  0  0  0  0  0  0  0  0  0  0  0
   71.1136   54.1335   42.6421 C   0  0  0  0  0  0  0  0  0  0  0  0
   72.8794   53.3408   44.6903 O   0  0  0  0  0  0  0  0  0  0  0  0
   70.4556   52.7684   42.9290 C   0  0  0  0  0  0  0  0  0  0  0  0
   73.8876   57.3153   40.7582 C   0  0  0  0  0  0  0  0  0  0  0  0
   70.6521   52.2277   44.3255 C   0  0  0  0  0  0  0  0  0  0  0  0
   73.4660   56.5899   43.1167 C   0  0  0  0  0  0  0  0  0  0  0  0
   72.1550   55.5506   40.6429 C   0  0  0  0  0  0  0  0  0  0  0  0
   69.9243   54.3767   40.3565 C   0  0  0  0  0  0  0  0  0  0  0  0
  1  4  2  0
  2  8  1  0
  2 10  1  0
  2 11  1  0
  3  5  1  0
  3 11  1  0
  3 12  1  0
  4  6  1  0
  4  9  1  0
  5  7  2  3
  7  9  1  0
M  END
>  <ID>  (1) 
conformer_0

$$$$
