
     RDKit          3D

 28 31  0  0  0  0  0  0  0  0999 V2000
   70.6820   52.7320   42.1952 C   0  0  0  0  0  0  0  0  0  0  0  0
   71.9266   54.8651   44.0375 O   0  0  0  0  0  0  0  0  0  0  0  0
   72.1563   52.9867   42.4922 C   0  0  0  0  0  0  0  0  0  0  0  0
   69.8126   53.7923   41.6501 C   0  0  0  0  0  0  0  0  0  0  0  0
   71.0002   51.8122   45.7212 C   0  0  0  0  0  0  0  0  0  0  0  0
   72.7268   54.4233   39.1174 C   0  0  0  0  0  0  0  0  0  0  0  0
   73.3686   55.7313   39.5636 C   0  0  0  0  0  0  0  0  0  0  0  0
   74.3678   54.1536   45.4181 C   0  0  0  0  0  0  0  0  0  0  0  0
   74.0324   53.3640   44.1739 C   0  0  0  0  0  0  0  0  0  0  0  0
   75.1044   55.6628   42.4584 O   0  0  0  0  0  0  0  0  0  0  0  0
   71.9261   52.8120   45.2295 C   0  0  0  0  0  0  0  0  0  0  0  0
   74.2439   58.4492   42.9885 O   0  0  0  0  0  0  0  0  0  0  0  0
   73.3699   54.3521   46.4508 N   0  0  0  0  0  0  0  0  0  0  0  0
   74.7034   58.5694   40.4614 C   0  0  0  0  0  0  0  0  0  0  0  0
   74.5139   57.9066   41.7762 C   0  0  0  0  0  0  0  0  0  0  0  0
   73.2689   50.8635   41.6434 C   0  0  0  0  0  0  0  0  0  0  0  0
   72.7113   51.5147   42.7827 C   0  0  0  0  0  0  0  0  0  0  0  0
   72.7158   50.7128   43.8145 O   0  0  0  0  0  0  0  0  0  0  0  0
   73.0826   55.8450   41.0962 C   0  0  0  0  0  0  0  0  0  0  0  0
   70.5315   52.1993   46.9570 O   0  0  0  0  0  0  0  0  0  0  0  0
   71.8538   53.9728   40.2731 C   0  0  0  0  0  0  0  0  0  0  0  0
   70.0582   51.3929   42.2540 C   0  0  0  0  0  0  0  0  0  0  0  0
   70.3749   54.1688   40.2648 C   0  0  0  0  0  0  0  0  0  0  0  0
   72.4564   53.5207   43.9685 C   0  0  0  0  0  0  0  0  0  0  0  0
   72.0905   53.7481   46.3630 C   0  0  0  0  0  0  0  0  0  0  0  0
   74.2287   56.4862   41.8037 C   0  0  0  0  0  0  0  0  0  0  0  0
   71.1940   53.3925   47.3720 C   0  0  0  0  0  0  0  0  0  0  0  0
   72.5490   54.3559   41.5628 C   0  0  0  0  0  0  0  0  0  0  0  0
  1  3  1  0
  1  4  1  0
  1 22  1  0
  2 24  1  0
  3 17  1  0
  3 24  1  0
  3 28  1  0
  4 23  1  0
  5 11  1  0
  5 20  1  0
  6  7  1  0
  6 21  1  0
  7 19  1  0
  8  9  1  0
  8 13  2  0
  9 24  1  0
 10 26  1  0
 11 24  1  0
 11 25  1  0
 12 15  1  0
 13 25  1  0
 14 15  1  0
 15 26  1  0
 16 17  1  0
 17 18  1  0
 19 26  1  0
 19 28  1  0
 20 27  1  0
 21 23  1  0
 21 28  1  0
 25 27  1  0
M  END
>  <ID>  (1) 
conformer_0

$$$$
