
     RDKit          3D

 32 36  0  0  0  0  0  0  0  0999 V2000
   72.3445   55.1612   44.1348 C   0  0  0  0  0  0  0  0  0  0  0  0
   71.8531   51.4191   42.0798 C   0  0  0  0  0  0  0  0  0  0  0  0
   72.5813   50.9548   38.3233 C   0  0  0  0  0  0  0  0  0  0  0  0
   71.5077   54.0806   44.2179 C   0  0  0  0  0  0  0  0  0  0  0  0
   71.5470   53.7482   47.5252 C   0  0  0  0  0  0  0  0  0  0  0  0
   75.1359   55.6207   39.5236 C   0  0  0  0  0  0  0  0  0  0  0  0
   73.9879   53.3619   39.5245 C   0  0  0  0  0  0  0  0  0  0  0  0
   73.1096   57.0335   40.8903 C   0  0  0  0  0  0  0  0  0  0  0  0
   71.3659   53.3188   43.0936 C   0  0  0  0  0  0  0  0  0  0  0  0
   73.3146   55.4334   45.0499 C   0  0  0  0  0  0  0  0  0  0  0  0
   75.7554   55.3719   46.1965 C   0  0  0  0  0  0  0  0  0  0  0  0
   70.5765   53.5625   46.5038 C   0  0  0  0  0  0  0  0  0  0  0  0
   69.5767   50.1021   43.9136 C   0  0  0  0  0  0  0  0  0  0  0  0
   74.2091   56.4618   44.7454 C   0  0  0  0  0  0  0  0  0  0  0  0
   71.0115   51.9710   43.0404 C   0  0  0  0  0  0  0  0  0  0  0  0
   73.9615   54.7851   39.9328 C   0  0  0  0  0  0  0  0  0  0  0  0
   70.8755   53.7812   45.3310 C   0  0  0  0  0  0  0  0  0  0  0  0
   71.9766   54.8716   41.3201 C   0  0  0  0  0  0  0  0  0  0  0  0
   73.7547   57.5126   44.0114 F   0  0  0  0  0  0  0  0  0  0  0  0
   73.3534   52.2830   40.3220 C   0  0  0  0  0  0  0  0  0  0  0  0
   72.9225   55.5566   40.5840 C   0  0  0  0  0  0  0  0  0  0  0  0
   72.4236   52.4632   41.3570 N   0  0  0  0  0  0  0  0  0  0  0  0
   71.3904   49.0248   42.7005 C   0  0  0  0  0  0  0  0  0  0  0  0
   73.3567   51.0433   39.6161 N   0  0  0  0  0  0  0  0  0  0  0  0
   72.0275   50.0602   42.0413 C   0  0  0  0  0  0  0  0  0  0  0  0
   74.7982   54.5379   46.6683 C   0  0  0  0  0  0  0  0  0  0  0  0
   69.9710   51.3842   43.6993 C   0  0  0  0  0  0  0  0  0  0  0  0
   72.7065   54.2052   47.1828 N   0  0  0  0  0  0  0  0  0  0  0  0
   71.9769   53.6228   41.8960 C   0  0  0  0  0  0  0  0  0  0  0  0
   75.4748   56.3665   45.2237 C   0  0  0  0  0  0  0  0  0  0  0  0
   73.4896   54.6883   46.2321 C   0  0  0  0  0  0  0  0  0  0  0  0
   70.2967   48.9910   43.4940 C   0  0  0  0  0  0  0  0  0  0  0  0
  1  4  1  0
  1 10  2  0
  2 15  1  0
  2 22  1  0
  2 25  2  0
  3 24  1  0
  4  9  1  0
  4 17  2  0
  5 12  1  0
  5 28  2  0
  6 16  1  0
  7 16  1  0
  7 20  1  0
  8 21  1  0
  9 15  1  0
  9 29  1  0
 10 14  1  0
 10 31  1  0
 11 26  2  0
 11 30  1  0
 12 17  2  0
 13 27  2  0
 13 32  1  0
 14 19  1  0
 14 30  2  0
 15 27  1  0
 16 21  1  0
 18 21  1  0
 18 29  1  0
 20 22  1  0
 20 24  2  3
 22 29  1  0
 23 25  1  0
 23 32  2  0
 26 31  1  0
 28 31  1  0
M  END
>  <ID>  (1) 
conformer_0

$$$$
