
     RDKit          3D

 22 25  0  0  0  0  0  0  0  0999 V2000
   71.3410   52.7593   43.4997 C   0  0  0  0  0  0  0  0  0  0  0  0
   74.0854   55.5049   41.1090 O   0  0  0  0  0  0  0  0  0  0  0  0
   73.8455   56.8326   42.9492 C   0  0  0  0  0  0  0  0  0  0  0  0
   73.2237   51.2472   45.9360 O   0  0  0  0  0  0  0  0  0  0  0  0
   73.7221   53.3713   40.1700 C   0  0  0  0  0  0  0  0  0  0  0  0
   71.4959   52.3710   44.9328 C   0  0  0  0  0  0  0  0  0  0  0  0
   73.2469   54.5233   43.2624 C   0  0  0  0  0  0  0  0  0  0  0  0
   70.2899   52.1652   42.7016 C   0  0  0  0  0  0  0  0  0  0  0  0
   71.4178   52.7789   40.7044 C   0  0  0  0  0  0  0  0  0  0  0  0
   70.6641   51.8704   41.4460 O   0  0  0  0  0  0  0  0  0  0  0  0
   73.5859   53.5033   45.4605 C   0  0  0  0  0  0  0  0  0  0  0  0
   69.0930   52.0064   43.1150 N   0  0  0  0  0  0  0  0  0  0  0  0
   73.5290   55.9253   45.1458 C   0  0  0  0  0  0  0  0  0  0  0  0
   72.8642   52.2906   45.3560 C   0  0  0  0  0  0  0  0  0  0  0  0
   74.3657   55.4185   38.9254 C   0  0  0  0  0  0  0  0  0  0  0  0
   70.5653   52.5673   46.0111 C   0  0  0  0  0  0  0  0  0  0  0  0
   72.5661   53.2411   42.7968 C   0  0  0  0  0  0  0  0  0  0  0  0
   72.7082   53.0743   41.3092 C   0  0  0  0  0  0  0  0  0  0  0  0
   74.5336   54.6061   40.2022 C   0  0  0  0  0  0  0  0  0  0  0  0
   73.4214   54.6427   44.6227 C   0  0  0  0  0  0  0  0  0  0  0  0
   73.7115   55.5705   42.4063 C   0  0  0  0  0  0  0  0  0  0  0  0
   73.6964   56.9938   44.3105 C   0  0  0  0  0  0  0  0  0  0  0  0
  1  6  1  0
  1  8  1  0
  1 17  1  0
  2 19  1  0
  2 21  1  0
  3 21  2  0
  3 22  1  0
  4 14  2  0
  5 18  1  0
  5 19  1  0
  6 14  1  0
  6 16  1  0
  7 17  1  0
  7 20  1  0
  7 21  1  0
  8 10  1  0
  8 12  2  0
  9 10  1  0
  9 18  1  0
 11 14  1  0
 11 20  1  0
 13 20  1  0
 13 22  2  0
 15 19  1  0
 17 18  1  0
M  END
>  <ID>  (1) 
conformer_0

$$$$
