
     RDKit          3D

 14 14  0  0  0  0  0  0  0  0999 V2000
   73.4771   55.7433   44.4336 C   0  0  0  0  0  0  0  0  0  0  0  0
   72.5317   54.5357   42.5881 C   0  0  0  0  0  0  0  0  0  0  0  0
   72.7470   53.5815   44.8531 N   0  0  0  0  0  0  0  0  0  0  0  0
   73.7791   56.7542   43.5546 C   0  0  0  0  0  0  0  0  0  0  0  0
   72.1547   52.5043   45.3576 C   0  0  0  0  0  0  0  0  0  0  0  0
   73.6292   55.7970   39.2257 C   0  0  0  0  0  0  0  0  0  0  0  0
   72.8784   54.5891   43.9535 C   0  0  0  0  0  0  0  0  0  0  0  0
   72.5066   55.5500   40.2105 C   0  0  0  0  0  0  0  0  0  0  0  0
   72.8508   55.5544   41.6983 C   0  0  0  0  0  0  0  0  0  0  0  0
   70.6218   52.4027   45.2928 C   0  0  0  0  0  0  0  0  0  0  0  0
   72.8155   51.5243   45.8627 O   0  0  0  0  0  0  0  0  0  0  0  0
   71.4173   54.6361   39.7710 C   0  0  0  0  0  0  0  0  0  0  0  0
   73.5097   56.6764   42.2020 C   0  0  0  0  0  0  0  0  0  0  0  0
   70.2718   52.1420   43.7457 C   0  0  0  0  0  0  0  0  0  0  0  0
  1  4  2  0
  1  7  1  0
  2  7  2  0
  2  9  1  0
  3  5  1  0
  3  7  1  0
  4 13  1  0
  5 10  1  0
  5 11  2  0
  6  8  1  0
  8  9  1  0
  8 12  1  0
  9 13  2  0
 10 14  1  0
M  END
>  <ID>  (1) 
conformer_0

$$$$
