
     RDKit          3D

 19 22  0  0  0  0  0  0  0  0999 V2000
   70.8390   52.7248   43.5035 C   0  0  0  0  0  0  0  0  0  0  0  0
   73.8630   56.3427   39.8571 C   0  0  0  0  0  0  0  0  0  0  0  0
   72.5835   54.9718   41.3993 C   0  0  0  0  0  0  0  0  0  0  0  0
   73.8851   57.0053   41.1738 C   0  0  0  0  0  0  0  0  0  0  0  0
   72.3565   51.0831   46.3136 O   0  0  0  0  0  0  0  0  0  0  0  0
   71.0613   51.7307   44.4423 C   0  0  0  0  0  0  0  0  0  0  0  0
   69.9727   52.6504   42.3554 C   0  0  0  0  0  0  0  0  0  0  0  0
   70.3539   53.8519   41.5291 C   0  0  0  0  0  0  0  0  0  0  0  0
   73.0455   56.4837   44.6310 C   0  0  0  0  0  0  0  0  0  0  0  0
   72.3982   55.5875   45.3043 C   0  0  0  0  0  0  0  0  0  0  0  0
   73.3302   56.0131   42.0729 C   0  0  0  0  0  0  0  0  0  0  0  0
   72.1747   53.3493   45.8176 C   0  0  0  0  0  0  0  0  0  0  0  0
   71.4650   54.4511   42.2108 C   0  0  0  0  0  0  0  0  0  0  0  0
   72.0281   54.3098   44.8287 C   0  0  0  0  0  0  0  0  0  0  0  0
   73.3693   56.3333   43.3896 C   0  0  0  0  0  0  0  0  0  0  0  0
   71.5180   53.9162   43.5581 C   0  0  0  0  0  0  0  0  0  0  0  0
   73.4525   58.4268   41.4238 C   0  0  0  0  0  0  0  0  0  0  0  0
   71.8439   52.0492   45.5450 C   0  0  0  0  0  0  0  0  0  0  0  0
   72.8944   55.2019   39.9624 C   0  0  0  0  0  0  0  0  0  0  0  0
  1  6  1  0
  1  7  1  0
  1 16  1  0
  2  4  1  0
  2 19  1  0
  3 11  1  0
  3 13  1  0
  3 19  1  0
  4 11  1  0
  4 17  1  0
  5 18  1  0
  6 18  2  0
  7  8  1  0
  8 13  1  0
  9 10  1  0
  9 15  2  0
 10 14  1  0
 11 15  2  0
 12 14  2  0
 12 18  1  0
 13 16  1  0
 14 16  1  0
M  END
>  <ID>  (1) 
conformer_0

$$$$
