
     RDKit          3D

 32 36  0  0  0  0  0  0  0  0999 V2000
   73.7027   58.2785   41.1444 C   0  0  0  0  0  0  0  0  0  0  0  0
   71.2961   55.4722   40.9468 O   0  0  0  0  0  0  0  0  0  0  0  0
   76.2292   58.1182   42.2754 C   0  0  0  0  0  0  0  0  0  0  0  0
   75.8093   59.3044   41.5587 C   0  0  0  0  0  0  0  0  0  0  0  0
   70.5480   52.2176   41.8813 C   0  0  0  0  0  0  0  0  0  0  0  0
   72.4888   55.5158   46.8011 C   0  0  0  0  0  0  0  0  0  0  0  0
   72.6624   54.8416   45.6627 C   0  0  0  0  0  0  0  0  0  0  0  0
   74.0937   51.8844   44.7596 N   0  0  0  0  0  0  0  0  0  0  0  0
   70.3093   51.6216   43.2576 C   0  0  0  0  0  0  0  0  0  0  0  0
   74.0881   57.1418   41.8340 C   0  0  0  0  0  0  0  0  0  0  0  0
   72.4030   55.1702   41.7084 C   0  0  0  0  0  0  0  0  0  0  0  0
   69.2060   54.1803   40.7567 O   0  0  0  0  0  0  0  0  0  0  0  0
   69.3818   51.6955   41.0296 C   0  0  0  0  0  0  0  0  0  0  0  0
   71.8608   52.7741   46.6321 C   0  0  0  0  0  0  0  0  0  0  0  0
   71.4154   53.1597   41.1149 C   0  0  0  0  0  0  0  0  0  0  0  0
   73.6632   52.9752   42.4013 C   0  0  0  0  0  0  0  0  0  0  0  0
   70.6205   54.3076   40.5843 C   0  0  0  0  0  0  0  0  0  0  0  0
   71.6056   53.4457   47.7848 C   0  0  0  0  0  0  0  0  0  0  0  0
   75.3835   57.0309   42.4101 C   0  0  0  0  0  0  0  0  0  0  0  0
   72.4748   53.7744   42.0574 C   0  0  0  0  0  0  0  0  0  0  0  0
   68.8267   51.4988   43.6212 C   0  0  0  0  0  0  0  0  0  0  0  0
   71.9563   54.7668   47.8914 C   0  0  0  0  0  0  0  0  0  0  0  0
   73.1196   52.7863   44.5129 C   0  0  0  0  0  0  0  0  0  0  0  0
   74.9002   52.2788   42.5905 C   0  0  0  0  0  0  0  0  0  0  0  0
   74.5414   59.3600   41.0027 C   0  0  0  0  0  0  0  0  0  0  0  0
   72.4870   53.4593   45.6217 C   0  0  0  0  0  0  0  0  0  0  0  0
   73.2321   56.1237   42.0401 N   0  0  0  0  0  0  0  0  0  0  0  0
   68.7298   52.8301   40.3038 C   0  0  0  0  0  0  0  0  0  0  0  0
   75.0239   51.6983   43.8409 C   0  0  0  0  0  0  0  0  0  0  0  0
   72.0869   52.5412   40.0354 O   0  0  0  0  0  0  0  0  0  0  0  0
   72.8981   53.1782   43.2020 N   0  0  0  0  0  0  0  0  0  0  0  0
   70.9411   50.2207   43.5730 C   0  0  0  0  0  0  0  0  0  0  0  0
  1 10  2  0
  1 25  1  0
  2 11  1  0
  2 17  1  0
  3  4  1  0
  3 19  2  0
  4 25  2  0
  5  9  1  0
  5 13  1  0
  5 15  1  0
  6  7  2  0
  6 22  1  0
  7 26  1  0
  8 23  1  0
  8 29  2  0
  9 21  1  0
  9 32  1  0
 10 19  1  0
 10 27  1  0
 11 20  1  0
 11 27  1  0
 12 17  1  0
 12 28  1  0
 13 28  1  0
 14 18  2  0
 14 26  1  0
 15 17  1  0
 15 20  1  0
 15 30  1  0
 16 24  1  0
 16 31  1  0
 18 22  1  0
 20 31  1  0
 23 26  1  0
 23 31  1  0
 24 29  1  0
M  END
>  <ID>  (1) 
conformer_0

$$$$
