
     RDKit          3D

 29 31  0  0  0  0  0  0  0  0999 V2000
   69.9738   53.4068   41.3431 C   0  0  0  0  0  0  0  0  0  0  0  0
   74.2982   55.9021   39.5171 C   0  0  0  0  0  0  0  0  0  0  0  0
   72.0204   52.1861   40.7807 N   0  0  0  0  0  0  0  0  0  0  0  0
   72.5867   54.8322   45.3939 C   0  0  0  0  0  0  0  0  0  0  0  0
   73.3225   55.5168   43.2185 C   0  0  0  0  0  0  0  0  0  0  0  0
   71.6864   50.9476   41.4485 C   0  0  0  0  0  0  0  0  0  0  0  0
   73.3487   53.7216   45.7848 N   0  0  0  0  0  0  0  0  0  0  0  0
   71.1431   53.2598   40.5352 N   0  0  0  0  0  0  0  0  0  0  0  0
   70.3906   52.8982   46.5660 C   0  0  0  0  0  0  0  0  0  0  0  0
   74.7851   53.7955   45.6542 C   0  0  0  0  0  0  0  0  0  0  0  0
   69.6477   49.9028   42.3445 O   0  0  0  0  0  0  0  0  0  0  0  0
   72.5566   57.4144   41.7157 O   0  0  0  0  0  1  0  0  0  0  0  0
   69.7686   52.2807   42.2617 C   0  0  0  0  0  0  0  0  0  0  0  0
   73.3418   52.4967   40.2440 C   0  0  0  0  0  0  0  0  0  0  0  0
   71.5956   53.2043   47.4496 C   0  0  0  0  0  0  0  0  0  0  0  0
   71.8407   54.4046   39.9867 C   0  0  0  0  0  0  0  0  0  0  0  0
   70.7343   53.1791   45.1366 C   0  0  0  0  0  0  0  0  0  0  0  0
   73.6906   56.5942   42.0355 S   0  0  0  0  0  4  0  0  0  0  0  0
   73.9218   56.9046   45.2000 C   0  0  0  0  0  0  0  0  0  0  0  0
   71.1967   54.5582   45.0606 C   0  0  0  0  0  0  0  0  0  0  0  0
   72.8156   52.7778   46.6761 C   0  0  0  0  0  0  0  0  0  0  0  0
   74.0178   55.6008   40.9099 N   0  0  0  0  0  0  0  0  0  0  0  0
   73.1526   53.7960   39.5135 C   0  0  0  0  0  0  0  0  0  0  0  0
   74.9120   57.4409   42.2890 O   0  0  0  0  0  1  0  0  0  0  0  0
   73.2930   55.7433   44.5680 C   0  0  0  0  0  0  0  0  0  0  0  0
   68.7497   52.4410   43.1126 N   0  0  0  0  0  0  0  0  0  0  0  0
   73.2627   51.5874   46.6696 O   0  0  0  0  0  0  0  0  0  0  0  0
   70.3290   50.9786   42.0217 C   0  0  0  0  0  0  0  0  0  0  0  0
   74.2929   54.5149   38.9447 C   0  0  0  0  0  0  0  0  0  0  0  0
  1  8  1  0
  1 13  1  0
  2 22  1  0
  2 29  1  0
  3  6  1  0
  3  8  1  0
  3 14  1  0
  4  7  1  0
  4 20  1  0
  4 25  1  0
  5 18  1  0
  5 25  1  0
  6 28  1  0
  7 10  1  0
  7 21  1  0
  8 16  1  0
  9 15  1  0
  9 17  1  0
 11 28  1  0
 12 18  1  0
 13 26  1  0
 13 28  1  0
 14 23  1  0
 15 21  1  0
 16 23  1  0
 17 20  1  0
 18 22  1  0
 18 24  1  0
 19 25  1  0
 21 27  2  0
 23 29  1  0
M  END
>  <ID>  (1) 
conformer_0

$$$$
