
     RDKit          3D

 26 29  0  0  0  0  0  0  0  0999 V2000
   72.0263   54.7008   39.8282 C   0  0  0  0  0  0  0  0  0  0  0  0
   72.0045   54.3852   44.7129 N   0  0  0  0  0  0  0  0  0  0  0  0
   75.9414   55.9057   42.5956 C   0  0  0  0  0  0  0  0  0  0  0  0
   73.0949   54.2794   43.8915 C   0  0  0  0  0  0  0  0  0  0  0  0
   74.3633   55.9145   42.3488 C   0  0  0  0  0  0  0  0  0  0  0  0
   73.4698   56.2217   45.0053 C   0  0  0  0  0  0  0  0  0  0  0  0
   70.6224   51.7080   43.5760 C   0  0  0  0  0  0  0  0  0  0  0  0
   70.6368   53.7825   46.9984 O   0  0  0  0  0  0  0  0  0  0  0  0
   71.8373   53.7033   47.2149 C   0  0  0  0  0  0  0  0  0  0  0  0
   70.4098   50.3534   43.3736 C   0  0  0  0  0  0  0  0  0  0  0  0
   72.8079   54.6706   46.8664 O   0  0  0  0  0  0  0  0  0  0  0  0
   72.4619   54.5461   41.1395 C   0  0  0  0  0  0  0  0  0  0  0  0
   73.6961   55.5319   43.6935 N   0  0  0  0  0  0  0  0  0  0  0  0
   71.5039   49.5418   43.0506 C   0  0  0  0  0  0  0  0  0  0  0  0
   72.4451   55.3966   45.7035 C   0  0  0  0  0  0  0  0  0  0  0  0
   71.8564   52.2589   43.4121 C   0  0  0  0  0  0  0  0  0  0  0  0
   71.4946   54.1759   42.0943 C   0  0  0  0  0  0  0  0  0  0  0  0
   70.6881   54.5483   39.5189 C   0  0  0  0  0  0  0  0  0  0  0  0
   72.0145   53.7416   43.4264 C   0  0  0  0  0  0  0  0  0  0  0  0
   74.0189   57.1313   41.9058 O   0  0  0  0  0  0  0  0  0  0  0  0
   72.7770   50.1022   42.9629 C   0  0  0  0  0  0  0  0  0  0  0  0
   69.7613   54.2586   40.4886 C   0  0  0  0  0  0  0  0  0  0  0  0
   72.9435   51.4602   43.1659 C   0  0  0  0  0  0  0  0  0  0  0  0
   73.8694   54.7234   41.3574 C   0  0  0  0  0  0  0  0  0  0  0  0
   70.1828   54.0832   41.7851 C   0  0  0  0  0  0  0  0  0  0  0  0
   72.3239   52.6511   47.9338 N   0  0  0  0  0  0  0  0  0  0  0  0
  1 12  2  0
  1 18  1  0
  2  4  1  0
  2 15  1  0
  3  5  1  0
  4 13  1  0
  4 19  1  0
  5 13  1  0
  5 20  1  0
  5 24  1  0
  6 13  1  0
  6 15  1  0
  7 10  2  0
  7 16  1  0
  8  9  2  0
  9 11  1  0
  9 26  1  0
 10 14  1  0
 11 15  1  0
 12 17  1  0
 12 24  1  0
 14 21  2  0
 16 19  1  0
 16 23  2  0
 17 19  1  0
 17 25  2  0
 18 22  2  0
 21 23  1  0
 22 25  1  0
M  END
>  <ID>  (1) 
conformer_0

$$$$
