
     RDKit          3D

 20 22  0  0  0  0  0  0  0  0999 V2000
   71.0031   52.5406   46.5876 C   0  0  0  0  0  0  0  0  0  0  0  0
   72.6254   51.6663   38.7544 C   0  0  0  0  0  0  0  0  0  0  0  0
   72.4146   52.1652   43.2760 O   0  0  0  0  0  0  0  0  0  0  0  0
   73.9673   56.1230   44.9092 C   0  0  0  0  0  0  0  0  0  0  0  0
   73.8117   54.9643   43.8643 C   0  0  0  0  0  0  0  0  0  0  0  0
   71.7613   54.6201   45.3623 C   0  0  0  0  0  0  0  0  0  0  0  0
   74.0280   54.7836   42.3048 C   0  0  0  0  0  0  0  0  0  0  0  0
   72.0425   53.5932   42.8744 C   0  0  0  0  0  0  0  0  0  0  0  0
   70.6537   53.7654   45.8532 C   0  0  0  0  0  0  0  0  0  0  0  0
   72.6321   53.4291   40.4671 C   0  0  0  0  0  0  0  0  0  0  0  0
   73.8908   53.7612   39.9222 N   0  0  0  0  0  0  0  0  0  0  0  0
   71.2767   53.1481   40.2363 C   0  0  0  0  0  0  0  0  0  0  0  0
   70.6291   53.6635   42.4858 C   0  0  0  0  0  0  0  0  0  0  0  0
   70.2811   53.4847   41.1649 C   0  0  0  0  0  0  0  0  0  0  0  0
   71.9834   52.5366   39.6441 C   0  0  0  0  0  0  0  0  0  0  0  0
   74.5122   53.0868   38.9548 C   0  0  0  0  0  0  0  0  0  0  0  0
   72.9135   53.9437   41.7809 C   0  0  0  0  0  0  0  0  0  0  0  0
   73.2317   57.2949   44.4459 N   0  0  0  0  0  0  0  0  0  0  0  0
   73.9598   51.9422   38.3839 C   0  0  0  0  0  0  0  0  0  0  0  0
   72.5133   54.3151   44.1327 C   0  0  0  0  0  0  0  0  0  0  0  0
  1  9  1  0
  2 15  1  0
  2 19  2  0
  3  8  1  0
  4  5  1  0
  4 18  1  0
  5  7  1  0
  5 20  1  0
  6  9  1  0
  6 20  1  0
  7 17  1  0
  8 13  1  0
  8 17  1  0
  8 20  1  0
 10 11  1  0
 10 15  1  0
 10 17  1  0
 11 16  2  0
 12 14  2  0
 12 15  2  0
 13 14  1  0
 16 19  1  0
M  END
>  <ID>  (1) 
conformer_0

$$$$
