
     RDKit          3D

 21 24  0  0  0  0  0  0  0  0999 V2000
   71.1179   51.9657   42.8553 C   0  0  0  0  0  0  0  0  0  0  0  0
   70.2569   52.0795   45.1660 C   0  0  0  0  0  0  0  0  0  0  0  0
   70.9684   53.7787   46.6406 C   0  0  0  0  0  0  0  0  0  0  0  0
   72.6427   51.5533   40.9506 C   0  0  0  0  0  0  0  0  0  0  0  0
   72.4510   54.4168   43.3124 C   0  0  0  0  0  0  0  0  0  0  0  0
   70.3744   51.0218   42.5115 O   0  0  0  0  0  0  0  0  0  0  0  0
   71.0346   52.6164   44.1387 C   0  0  0  0  0  0  0  0  0  0  0  0
   73.2165   56.4651   42.3062 C   0  0  0  0  0  0  0  0  0  0  0  0
   72.4695   55.5425   45.8830 C   0  0  0  0  0  0  0  0  0  0  0  0
   72.9208   56.2384   44.7600 N   0  0  0  0  0  0  0  0  0  0  0  0
   72.0798   52.4613   41.9896 N   0  0  0  0  0  0  0  0  0  0  0  0
   74.4771   56.4299   40.0582 C   0  0  0  0  0  0  0  0  0  0  0  0
   71.7444   54.3745   45.6319 C   0  0  0  0  0  0  0  0  0  0  0  0
   73.4946   54.3565   41.0844 C   0  0  0  0  0  0  0  0  0  0  0  0
   72.5701   53.7605   42.0442 C   0  0  0  0  0  0  0  0  0  0  0  0
   74.4216   57.9155   40.0508 C   0  0  0  0  0  0  0  0  0  0  0  0
   71.7531   53.7819   44.3754 C   0  0  0  0  0  0  0  0  0  0  0  0
   73.3785   57.4057   44.8615 O   0  0  0  0  0  0  0  0  0  0  0  0
   70.2334   52.6639   46.3874 C   0  0  0  0  0  0  0  0  0  0  0  0
   73.5499   55.7907   41.0671 C   0  0  0  0  0  0  0  0  0  0  0  0
   72.9159   55.7136   43.4679 C   0  0  0  0  0  0  0  0  0  0  0  0
  1  6  2  0
  1  7  1  0
  1 11  1  0
  2  7  1  0
  2 19  2  0
  3 13  2  0
  3 19  1  0
  4 11  1  0
  5 15  1  0
  5 17  1  0
  5 21  2  0
  7 17  2  0
  8 20  1  0
  8 21  1  0
  9 10  1  0
  9 13  1  0
 10 18  1  0
 10 21  1  0
 11 15  1  0
 12 16  1  0
 12 20  1  0
 13 17  1  0
 14 15  1  0
 14 20  1  0
M  END
>  <ID>  (1) 
conformer_0

$$$$
