
     RDKit          3D

 21 22  0  0  0  0  0  0  0  0999 V2000
   69.8914   53.1944   42.4034 C   0  0  0  0  0  0  0  0  0  0  0  0
   73.1425   55.8728   43.7278 C   0  0  0  0  0  0  0  0  0  0  0  0
   73.4323   55.4426   39.9675 C   0  0  0  0  0  0  0  0  0  0  0  0
   71.2921   50.3217   43.9792 C   0  0  0  0  0  0  0  0  0  0  0  0
   68.7030   51.0149   44.4470 C   0  0  0  0  0  0  0  0  0  0  0  0
   73.7081   56.0051   42.3831 C   0  0  0  0  0  0  0  0  0  0  0  0
   74.5085   58.1880   43.2317 C   0  0  0  0  0  0  0  0  0  0  0  0
   73.0938   55.0813   41.3982 C   0  0  0  0  0  0  0  0  0  0  0  0
   75.9418   56.6226   41.5481 C   0  0  0  0  0  0  0  0  0  0  0  0
   74.6093   57.1367   42.1405 C   0  0  0  0  0  0  0  0  0  0  0  0
   73.3218   54.4415   45.7340 C   0  0  0  0  0  0  0  0  0  0  0  0
   72.9819   54.4797   44.2287 C   0  0  0  0  0  0  0  0  0  0  0  0
   69.9766   51.0966   43.7143 C   0  0  0  0  0  0  0  0  0  0  0  0
   69.7766   51.6841   42.3279 C   0  0  0  0  0  0  0  0  0  0  0  0
   71.9832   53.3855   43.9558 C   0  0  0  0  0  0  0  0  0  0  0  0
   70.7436   54.7282   39.2914 C   0  0  0  0  0  0  0  0  0  0  0  0
   69.5443   53.9654   41.2378 C   0  0  0  0  0  0  0  0  0  0  0  0
   72.3842   55.4937   46.3139 C   0  0  0  0  0  0  0  0  0  0  0  0
   71.2754   53.5581   42.6845 C   0  0  0  0  0  0  0  0  0  0  0  0
   70.6882   54.7419   40.7681 C   0  0  0  0  0  0  0  0  0  0  0  0
   71.7322   54.6003   41.7624 C   0  0  0  0  0  0  0  0  0  0  0  0
  1 14  1  0
  1 17  1  0
  1 19  1  0
  2  6  1  0
  2 12  1  0
  3  8  1  0
  4 13  1  0
  5 13  1  0
  6  8  1  0
  6 10  1  0
  7 10  1  0
  8 21  1  0
  9 10  1  0
 11 12  1  0
 11 18  1  0
 12 15  1  0
 13 14  1  0
 15 19  1  0
 16 20  1  0
 17 20  1  0
 19 21  1  0
 20 21  1  0
M  END
>  <ID>  (1) 
conformer_0

$$$$
