
     RDKit          3D

 35 37  0  0  0  0  0  0  0  0999 V2000
   70.2931   52.5879   42.7509 C   0  0  0  0  0  0  0  0  0  0  0  0
   70.4017   52.8188   44.2035 C   0  0  0  0  0  0  0  0  0  0  0  0
   68.3104   51.5298   43.1870 O   0  0  0  0  0  0  0  0  0  0  0  0
   71.4332   52.8096   42.0438 O   0  0  0  0  0  0  0  0  0  0  0  0
   69.3516   50.9583   41.3256 O   0  0  0  0  0  0  0  0  0  0  0  0
   72.5298   52.3130   41.3834 C   0  0  0  0  0  0  0  0  0  0  0  0
   74.6380   53.2641   38.8305 O   0  0  0  0  0  0  0  0  0  0  0  0
   73.1230   57.9337   42.7665 O   0  0  0  0  0  0  0  0  0  0  0  0
   69.9870   52.4457   47.1979 C   0  0  0  0  0  0  0  0  0  0  0  0
   74.2330   54.0875   41.0720 C   0  0  0  0  0  0  0  0  0  0  0  0
   72.2471   52.0628   47.5497 O   0  0  0  0  0  0  0  0  0  0  0  0
   73.1871   50.5686   39.7768 C   0  0  0  0  0  0  0  0  0  0  0  0
   71.3957   52.8898   47.1996 C   0  0  0  0  0  0  0  0  0  0  0  0
   72.8488   48.5787   41.6430 C   0  0  0  0  0  0  0  0  0  0  0  0
   75.8719   54.9252   44.2477 C   0  0  0  0  0  0  0  0  0  0  0  0
   76.4570   53.1195   41.8804 C   0  0  0  0  0  0  0  0  0  0  0  0
   73.5225   53.0417   40.7847 N   0  0  0  0  0  0  0  0  0  0  0  0
   72.2647   55.7844   40.5921 Cl  0  0  0  0  0  0  0  0  0  0  0  0
   73.5717   55.3252   41.4682 C   0  0  0  0  0  0  0  0  0  0  0  0
   73.3364   49.2714   39.3633 C   0  0  0  0  0  0  0  0  0  0  0  0
   75.3656   54.0838   42.0108 C   0  0  0  0  0  0  0  0  0  0  0  0
   73.7744   56.9509   44.6935 O   0  0  0  0  0  0  0  0  0  0  0  0
   72.8698   55.8895   45.3959 C   0  0  0  0  0  0  0  0  0  0  0  0
   74.1080   55.8178   42.5907 N   0  0  0  0  0  0  0  0  0  0  0  0
   75.1457   55.0001   42.9390 C   0  0  0  0  0  0  0  0  0  0  0  0
   72.7454   49.9010   42.0076 C   0  0  0  0  0  0  0  0  0  0  0  0
   69.2312   51.7023   42.3234 C   0  0  0  0  0  0  0  0  0  0  0  0
   72.7519   52.3449   44.6230 O   0  0  0  0  0  0  0  0  0  0  0  0
   74.2261   53.3533   39.9229 C   0  0  0  0  0  0  0  0  0  0  0  0
   72.0464   54.5187   45.3357 C   0  0  0  0  0  0  0  0  0  0  0  0
   73.6796   57.0059   43.3047 C   0  0  0  0  0  0  0  0  0  0  0  0
   72.8349   50.8986   41.0541 C   0  0  0  0  0  0  0  0  0  0  0  0
   71.8017   54.1670   46.7926 N   0  0  0  0  0  0  0  0  0  0  0  0
   73.1422   48.2627   40.2946 C   0  0  0  0  0  0  0  0  0  0  0  0
   71.7234   53.2263   44.6357 C   0  0  0  0  0  0  0  0  0  0  0  0
  1  2  1  0
  1  4  1  0
  1 27  1  0
  2 35  1  0
  3 27  2  0
  4  6  1  0
  5 27  1  0
  6 17  1  0
  6 32  1  0
  7 29  2  0
  8 31  2  0
  9 13  1  0
 10 17  1  0
 10 19  1  0
 10 21  1  0
 11 13  2  0
 12 20  2  0
 12 32  1  0
 13 33  1  0
 14 26  1  0
 14 34  2  0
 15 25  1  0
 16 21  1  0
 17 29  1  0
 18 19  1  0
 19 24  1  0
 20 34  1  0
 21 25  1  0
 22 23  1  0
 22 31  1  0
 23 30  1  0
 24 25  1  0
 24 31  1  0
 26 32  2  0
 28 35  1  0
 30 33  2  3
 30 35  1  0
M  END
>  <ID>  (1) 
conformer_0

$$$$
