
     RDKit          3D

 29 34  0  0  0  0  0  0  0  0999 V2000
   71.2358   52.6096   42.7324 C   0  0  0  0  0  0  0  0  0  0  0  0
   71.6813   51.7988   45.9000 C   0  0  0  0  0  0  0  0  0  0  0  0
   72.8443   53.0433   39.5128 C   0  0  0  0  0  0  0  0  0  0  0  0
   70.8996   51.5712   43.6868 C   0  0  0  0  0  0  0  0  0  0  0  0
   70.2283   52.0293   45.9357 C   0  0  0  0  0  0  0  0  0  0  0  0
   74.2521   56.6135   45.1580 O   0  0  0  0  0  0  0  0  0  0  0  0
   72.3806   52.6957   45.1728 C   0  0  0  0  0  0  0  0  0  0  0  0
   70.4475   50.9096   41.4191 C   0  0  0  0  0  0  0  0  0  0  0  0
   72.1674   54.4761   41.1606 C   0  0  0  0  0  0  0  0  0  0  0  0
   73.0575   55.4217   40.9341 C   0  0  0  0  0  0  0  0  0  0  0  0
   72.0631   53.2612   40.6408 C   0  0  0  0  0  0  0  0  0  0  0  0
   73.7254   54.0509   39.1165 C   0  0  0  0  0  0  0  0  0  0  0  0
   73.8835   56.9444   44.0300 C   0  0  0  0  0  0  0  0  0  0  0  0
   68.6867   52.2284   43.9677 O   0  0  0  0  0  0  0  0  0  0  0  0
   73.8168   55.2700   39.7968 C   0  0  0  0  0  0  0  0  0  0  0  0
   73.8330   57.8052   41.8512 C   0  0  0  0  0  0  0  0  0  0  0  0
   73.1123   56.1238   43.2292 N   0  0  0  0  0  0  0  0  0  0  0  0
   71.8372   53.7692   43.3626 C   0  0  0  0  0  0  0  0  0  0  0  0
   71.2084   52.1950   41.3160 C   0  0  0  0  0  0  0  0  0  0  0  0
   72.3329   51.1263   46.8975 C   0  0  0  0  0  0  0  0  0  0  0  0
   73.2497   56.5446   41.8191 C   0  0  0  0  0  0  0  0  0  0  0  0
   69.7970   52.0458   44.5264 C   0  0  0  0  0  0  0  0  0  0  0  0
   69.8263   53.1839   46.6028 O   0  0  0  0  0  0  0  0  0  0  0  0
   72.5064   54.8390   43.7766 C   0  0  0  0  0  0  0  0  0  0  0  0
   70.5094   50.4038   42.8351 C   0  0  0  0  0  0  0  0  0  0  0  0
   74.4129   58.0006   43.1947 C   0  0  0  0  0  0  0  0  0  0  0  0
   73.8520   52.8939   45.1546 C   0  0  0  0  0  0  0  0  0  0  0  0
   71.7231   53.9603   44.6860 C   0  0  0  0  0  0  0  0  0  0  0  0
   72.0640   51.4024   44.5939 C   0  0  0  0  0  0  0  0  0  0  0  0
  1  4  1  0
  1 18  1  0
  1 19  1  0
  2  5  1  0
  2  7  1  0
  2 20  1  0
  2 29  1  0
  3 11  2  0
  3 12  1  0
  4 22  1  0
  4 25  1  0
  4 29  1  0
  5 22  1  0
  5 23  1  0
  6 13  2  0
  7 27  1  0
  7 28  1  0
  8 19  1  0
  8 25  1  0
  9 10  2  0
  9 11  1  0
 10 15  1  0
 10 21  1  0
 11 19  1  0
 12 15  2  0
 13 17  1  0
 13 26  1  0
 14 22  2  0
 16 21  1  0
 16 26  1  0
 17 21  1  0
 17 24  1  0
 18 24  1  0
 18 28  1  0
M  END
>  <ID>  (1) 
conformer_0

$$$$
