
     RDKit          3D

 23 26  0  0  0  0  0  0  0  0999 V2000
   71.2681   53.5822   44.4673 C   0  0  0  0  0  0  0  0  0  0  0  0
   72.8450   52.4478   39.8975 C   0  0  0  0  0  0  0  0  0  0  0  0
   74.9812   56.5621   41.2851 C   0  0  0  0  0  0  0  0  0  0  0  0
   71.9922   54.4210   46.5265 C   0  0  0  0  0  0  0  0  0  0  0  0
   71.4960   52.5969   43.4168 C   0  0  0  0  0  0  0  0  0  0  0  0
   72.3990   54.1320   41.5140 C   0  0  0  0  0  0  0  0  0  0  0  0
   73.7627   54.9025   39.7665 C   0  0  0  0  0  0  0  0  0  0  0  0
   74.8609   54.6053   39.1743 O   0  0  0  0  0  0  0  0  0  0  0  0
   72.4373   53.9728   45.1533 C   0  0  0  0  0  0  0  0  0  0  0  0
   70.1224   53.9984   42.1018 O   0  0  0  0  0  0  0  0  0  0  0  0
   70.7799   52.2884   44.9184 C   0  0  0  0  0  0  0  0  0  0  0  0
   73.0028   55.6731   43.3031 C   0  0  0  0  0  0  0  0  0  0  0  0
   74.6027   57.4881   42.4218 C   0  0  0  0  0  0  0  0  0  0  0  0
   70.8323   53.5707   46.9771 C   0  0  0  0  0  0  0  0  0  0  0  0
   72.6851   53.9138   40.0689 C   0  0  0  0  0  0  0  0  0  0  0  0
   72.2769   51.5611   46.6636 O   0  0  0  0  0  0  0  0  0  0  0  0
   72.0621   54.8011   44.1100 C   0  0  0  0  0  0  0  0  0  0  0  0
   73.6006   57.0112   43.4162 C   0  0  0  0  0  0  0  0  0  0  0  0
   72.8306   55.4667   41.8541 C   0  0  0  0  0  0  0  0  0  0  0  0
   72.5445   56.5571   41.0697 C   0  0  0  0  0  0  0  0  0  0  0  0
   73.7558   55.8930   40.8581 C   0  0  0  0  0  0  0  0  0  0  0  0
   71.2898   53.4687   42.1403 C   0  0  0  0  0  0  0  0  0  0  0  0
   71.0852   52.1585   46.4289 C   0  0  0  0  0  0  0  0  0  0  0  0
  1  5  1  0
  1  9  1  0
  1 11  1  0
  2 15  1  0
  3 13  1  0
  3 21  1  0
  4  9  1  0
  4 14  1  0
  5 22  1  0
  6 15  1  0
  6 19  1  0
  6 22  1  0
  7  8  2  0
  7 15  1  0
  7 21  1  0
  9 17  1  0
 10 22  2  0
 11 23  1  0
 12 17  1  0
 12 18  1  0
 12 19  1  0
 13 18  2  0
 14 23  1  0
 16 23  1  0
 19 20  1  0
 20 21  1  0
M  END
>  <ID>  (1) 
conformer_0

$$$$
