
     RDKit          3D

 15 16  0  0  0  0  0  0  0  0999 V2000
   72.5230   55.1169   44.4632 C   0  0  0  0  0  0  0  0  0  0  0  0
   73.5169   57.6039   41.3211 C   0  0  0  0  0  0  0  0  0  0  0  0
   72.8715   55.9438   43.4062 C   0  0  0  0  0  0  0  0  0  0  0  0
   71.7778   54.4335   41.8682 C   0  0  0  0  0  0  0  0  0  0  0  0
   71.3712   53.6584   42.9278 C   0  0  0  0  0  0  0  0  0  0  0  0
   71.4662   54.0064   40.5759 N   0  0  0  0  0  0  0  0  0  0  0  0
   73.5841   57.1191   43.6374 C   0  0  0  0  0  0  0  0  0  0  0  0
   73.8929   57.9275   42.5987 C   0  0  0  0  0  0  0  0  0  0  0  0
   70.2237   50.6947   44.5736 C   0  0  0  0  0  0  0  0  0  0  0  0
   71.1214   53.0627   45.3218 C   0  0  0  0  0  0  0  0  0  0  0  0
   71.7062   53.9827   44.2114 C   0  0  0  0  0  0  0  0  0  0  0  0
   72.8240   56.4582   41.0463 C   0  0  0  0  0  0  0  0  0  0  0  0
   71.2771   51.5601   44.9959 C   0  0  0  0  0  0  0  0  0  0  0  0
   72.5514   51.1308   44.8673 O   0  0  0  0  0  0  0  0  0  0  0  0
   72.4977   55.6269   42.0925 C   0  0  0  0  0  0  0  0  0  0  0  0
  1  3  2  0
  1 11  1  0
  2  8  1  0
  2 12  2  0
  3  7  1  0
  3 15  1  0
  4  5  1  0
  4  6  1  0
  4 15  2  0
  5 11  2  0
  7  8  2  0
  9 13  1  0
 10 11  1  0
 10 13  1  0
 12 15  1  0
 13 14  1  0
M  END
>  <ID>  (1) 
conformer_0

$$$$
