
     RDKit          3D

 20 20  0  0  0  0  0  0  0  0999 V2000
   34.8866   18.8595   36.3852 C   0  0  0  0  0  0  0  0  0  0  0  0
   32.2569   18.3225   36.0187 C   0  0  0  0  0  0  0  0  0  0  0  0
   32.2843   17.5812   36.9875 C   0  0  0  0  0  0  0  0  0  0  0  0
   37.6861   19.5391   35.8605 P   0  0  0  0  0  0  0  0  0  0  0  0
   35.9825   19.2962   36.8286 O   0  0  0  0  0  0  0  0  0  0  0  0
   33.8021   20.4932   35.6638 O   0  0  0  0  0  0  0  0  0  0  0  0
   37.9574   20.7644   35.7868 O   0  0  0  0  0  0  0  0  0  0  0  0
   36.4766   15.4298   38.1344 P   0  0  0  0  0  0  0  0  0  0  0  0
   37.4455   15.9459   38.8262 O   0  0  0  0  0  0  0  0  0  0  0  0
   36.4264   14.2066   37.3451 O   0  0  0  0  0  0  0  0  0  0  0  0
   31.9059   18.4082   34.9116 O   0  0  0  0  0  0  0  0  0  0  0  0
   30.9067   17.0125   36.9087 O   0  0  0  0  0  0  0  0  0  0  0  0
   33.4754   19.4821   36.4787 C   0  0  0  0  0  0  0  0  0  0  0  0
   35.6613   16.3877   37.3727 O   0  0  0  0  0  0  0  0  0  0  0  0
   36.9511   18.8550   35.0346 O   0  0  0  0  0  0  0  0  0  0  0  0
   32.8476   16.1990   38.3408 O   0  0  0  0  0  0  0  0  0  0  0  0
   38.7313   18.9325   36.1701 O   0  0  0  0  0  0  0  0  0  0  0  0
   35.5252   15.0636   39.3609 O   0  0  0  0  0  0  0  0  0  0  0  0
   33.7151   16.8901   36.9248 C   0  0  0  0  0  0  0  0  0  0  0  0
   35.1255   17.2650   37.4648 C   0  0  0  0  0  0  0  0  0  0  0  0
  3  2  1  0
  5  1  1  0
  7  4  1  0
  9  8  1  0
 10  8  1  0
 11  2  1  0
 12  3  1  0
 13  1  1  0
 13  2  1  0
 13  6  1  0
 15  1  1  0
 15  4  1  0
 17  4  1  0
 18  8  1  0
 19  3  1  0
 19 16  1  0
 20  1  1  0
 20 10  1  0
 20 14  1  0
 20 19  1  0
M  END
>  <ID>  (1) 
conformer_0

$$$$
