
     RDKit          3D

 19 18  0  0  0  0  0  0  0  0999 V2000
   34.0551   17.3889   36.8981 C   0  0  0  0  0  0  0  0  0  0  0  0
   32.3321   18.5294   36.1662 C   0  0  0  0  0  0  0  0  0  0  0  0
   32.2965   17.7289   36.9185 C   0  0  0  0  0  0  0  0  0  0  0  0
   38.1015   20.3902   35.9684 O   0  0  0  0  0  0  0  0  0  0  0  0
   34.0594   20.4082   35.5360 O   0  0  0  0  0  0  0  0  0  0  0  0
   32.1524   18.0374   34.8108 O   0  0  0  0  0  0  0  0  0  0  0  0
   38.0533   18.7502   36.2173 P   0  0  0  0  0  0  0  0  0  0  0  0
   36.6119   14.4599   37.6795 O   0  0  0  0  0  0  0  0  0  0  0  0
   35.6833   15.4361   39.4798 O   0  0  0  0  0  0  0  0  0  0  0  0
   36.5184   18.6845   36.5569 O   0  0  0  0  0  0  0  0  0  0  0  0
   36.6306   15.8648   38.3007 P   0  0  0  0  0  0  0  0  0  0  0  0
   31.2951   16.8789   37.4262 O   0  0  0  0  0  0  0  0  0  0  0  0
   39.0147   18.1947   36.8699 O   0  0  0  0  0  0  0  0  0  0  0  0
   37.8561   18.5096   34.7007 O   0  0  0  0  0  0  0  0  0  0  0  0
   37.7329   16.5768   38.9541 O   0  0  0  0  0  0  0  0  0  0  0  0
   35.2179   18.2130   36.8621 C   0  0  0  0  0  0  0  0  0  0  0  0
   33.7803   19.5052   36.3179 C   0  0  0  0  0  0  0  0  0  0  0  0
   35.9632   16.5271   37.4606 O   0  0  0  0  0  0  0  0  0  0  0  0
   33.3646   16.3508   38.4660 O   0  0  0  0  0  0  0  0  0  0  0  0
  3  1  1  0
  3  2  1  0
  6  2  1  0
  7  4  1  0
  8  1  1  0
 11  9  1  0
 12  3  1  0
 13  7  1  0
 14  7  1  0
 15 11  1  0
 16  1  1  0
 16 10  1  0
 16 14  1  0
 17  2  1  0
 17  5  1  0
 18 11  1  0
 18 16  1  0
 19  1  1  0
M  END
>  <ID>  (1) 
conformer_0

$$$$
