
     RDKit          3D

 19 18  0  0  0  0  0  0  0  0999 V2000
   32.2148   18.0874   36.2946 C   0  0  0  0  0  0  0  0  0  0  0  0
   32.4503   17.3099   37.5530 C   0  0  0  0  0  0  0  0  0  0  0  0
   33.8089   20.4642   35.7859 O   0  0  0  0  0  0  0  0  0  0  0  0
   37.5844   19.1529   35.8598 P   0  0  0  0  0  0  0  0  0  0  0  0
   38.0405   20.4709   35.7465 O   0  0  0  0  0  0  0  0  0  0  0  0
   35.1575   15.2233   39.5183 O   0  0  0  0  0  0  0  0  0  0  0  0
   33.1797   19.1876   36.4068 C   0  0  0  0  0  0  0  0  0  0  0  0
   36.0177   15.5001   38.0813 P   0  0  0  0  0  4  0  0  0  0  0  0
   36.2982   19.1843   36.5428 O   0  0  0  0  0  0  0  0  0  0  0  0
   36.1416   14.2733   37.5262 O   0  0  0  0  0  0  0  0  0  0  0  0
   31.9093   18.2078   34.9417 O   0  0  0  0  0  0  0  0  0  0  0  0
   37.0877   16.4195   38.5798 O   0  0  0  0  0  0  0  0  0  0  0  0
   30.8655   17.5591   37.3214 O   0  0  0  0  0  0  0  0  0  0  0  0
   34.5018   16.2386   37.6315 O   0  0  0  0  0  0  0  0  0  0  0  0
   34.5153   18.6830   36.5017 C   0  0  0  0  0  0  0  0  0  0  0  0
   38.5619   18.1437   36.9127 O   0  0  0  0  0  0  0  0  0  0  0  0
   37.3045   18.7062   34.5700 O   0  0  0  0  0  0  0  0  0  0  0  0
   36.4634   16.6524   36.3553 O   0  0  0  0  0  1  0  0  0  0  0  0
   34.0313   17.0130   37.4547 C   0  0  0  0  0  0  0  0  0  0  0  0
  2  1  1  0
  5  4  1  0
  7  1  1  0
  7  3  1  0
  8  6  1  0
 10  8  1  0
 11  1  1  0
 12  8  1  0
 13  2  1  0
 15  7  1  0
 15  9  1  0
 16  4  1  0
 17  4  1  0
 17 15  1  0
 18  8  1  0
 19  2  1  0
 19 10  1  0
 19 14  1  0
M  RAD  2   8   2  18   2
M  END
>  <ID>  (1) 
conformer_0

$$$$
