
     RDKit          3D

 19 19  0  0  0  0  0  0  0  0999 V2000
   32.5374   17.3686   37.0843 C   0  0  0  0  0  0  0  0  0  0  0  0
   32.0321   18.1949   36.5449 C   0  0  0  0  0  0  0  0  0  0  0  0
   34.3190   17.0330   37.2840 C   0  0  0  0  0  0  0  0  0  0  0  0
   33.7513   20.5588   35.6825 O   0  0  0  0  0  0  0  0  0  0  0  0
   38.0725   20.3562   35.8639 O   0  0  0  0  0  0  0  0  0  0  0  0
   37.5958   18.9433   35.9270 P   0  0  0  0  0  0  0  0  0  0  0  0
   35.6157   15.3899   39.2540 O   0  0  0  0  0  0  0  0  0  0  0  0
   36.4154   15.6694   38.0540 P   0  0  0  0  0  0  0  0  0  0  0  0
   35.9070   19.1315   36.5739 O   0  0  0  0  0  0  0  0  0  0  0  0
   36.6085   14.6177   37.2616 O   0  0  0  0  0  0  0  0  0  0  0  0
   32.1542   18.0727   34.9084 O   0  0  0  0  0  0  0  0  0  0  0  0
   32.8932   16.4956   38.6341 O   0  0  0  0  0  0  0  0  0  0  0  0
   30.6956   17.8675   37.1072 O   0  0  0  0  0  0  0  0  0  0  0  0
   38.6289   18.1710   36.7888 O   0  0  0  0  0  0  0  0  0  0  0  0
   34.7578   18.4746   36.7601 C   0  0  0  0  0  0  0  0  0  0  0  0
   37.1983   18.3773   34.8577 O   0  0  0  0  0  0  0  0  0  0  0  0
   37.4219   16.5287   38.6590 O   0  0  0  0  0  0  0  0  0  0  0  0
   36.0409   16.6309   36.9050 O   0  0  0  0  0  0  0  0  0  0  0  0
   33.3577   19.3497   36.3068 C   0  0  0  0  0  0  0  0  0  0  0  0
  2  1  1  0
  3  1  1  0
  6  5  1  0
  8  7  1  0
 10  3  1  0
 10  8  1  0
 11  2  1  0
 12  1  1  0
 13  2  1  0
 14  6  1  0
 15  3  1  0
 15  9  1  0
 16  6  1  0
 16 15  1  0
 17  8  1  0
 18  3  1  0
 19  2  1  0
 19  4  1  0
 19 15  1  0
M  END
>  <ID>  (1) 
conformer_0

$$$$
