
     RDKit          3D

 19 20  0  0  0  0  0  0  0  0999 V2000
   32.1913   18.4287   36.2195 C   0  0  0  0  0  0  0  0  0  0  0  0
   38.6781   17.2777   37.3609 C   0  0  0  0  0  0  0  0  0  0  0  0
   31.9427   17.3584   37.1510 C   0  0  0  0  0  0  0  0  0  0  0  0
   33.8058   19.4128   36.2283 C   0  0  0  0  0  0  0  0  0  0  0  0
   37.8351   20.1844   36.0583 O   0  0  0  0  0  0  0  0  0  0  0  0
   37.1931   15.9700   37.7546 C   0  0  0  0  0  0  0  0  0  0  0  0
   33.8762   20.6240   35.5239 O   0  0  0  0  0  0  0  0  0  0  0  0
   37.1422   19.5391   35.7654 P   0  0  0  0  0  4  0  0  0  0  0  0
   32.3720   17.7500   34.9248 O   0  0  0  0  0  0  0  0  0  0  0  0
   36.6561   19.4227   34.4432 O   0  0  0  0  0  1  0  0  0  0  0  0
   31.2178   16.6618   38.0207 O   0  0  0  0  0  0  0  0  0  0  0  0
   34.4827   17.9691   36.8091 C   0  0  0  0  0  0  0  0  0  0  0  0
   33.3629   17.0092   37.6031 C   0  0  0  0  0  0  0  0  0  0  0  0
   35.4507   19.1935   36.4232 O   0  0  0  0  0  0  0  0  0  0  0  0
   33.4912   15.8143   38.2682 O   0  0  0  0  0  0  0  0  0  0  0  0
   38.1959   16.5141   38.4655 C   0  0  0  0  0  0  0  0  0  0  0  0
   36.1546   17.6108   37.1147 N   0  0  0  0  0  0  0  0  0  0  0  0
   36.3411   15.2195   38.6396 O   0  0  0  0  0  0  0  0  0  0  0  0
   37.0606   17.7959   37.1604 C   0  0  0  0  0  0  0  0  0  0  0  0
  3  1  1  0
  4  1  1  0
  7  4  1  0
  8  5  1  0
  9  1  1  0
 10  8  1  0
 11  3  1  0
 12  4  1  0
 13  3  1  0
 13 12  1  0
 14  8  1  0
 14 12  1  0
 15 13  1  0
 16  2  1  0
 16  6  1  0
 17 12  1  0
 18  6  1  0
 19  2  1  0
 19  6  1  0
 19 17  1  0
M  RAD  2   8   2  10   2
M  END
>  <ID>  (1) 
conformer_0

$$$$
