
     RDKit          3D

 21 20  0  0  0  0  0  0  0  0999 V2000
   33.0954   19.1399   36.1651 C   0  0  0  0  0  0  0  0  0  0  0  0
   31.7427   17.9885   36.1186 C   0  0  0  0  0  0  0  0  0  0  0  0
   37.2558   19.4377   35.9209 P   0  0  0  0  0  0  0  0  0  0  0  0
   38.0128   20.5518   35.7092 O   0  0  0  0  0  0  0  0  0  0  0  0
   34.5465   19.0402   36.3705 C   0  0  0  0  0  0  0  0  0  0  0  0
   33.8548   20.3903   35.4544 O   0  0  0  0  0  0  0  0  0  0  0  0
   35.9145   15.0245   39.3142 O   0  0  0  0  0  0  0  0  0  0  0  0
   36.6675   15.6492   38.1948 P   0  0  0  0  0  0  0  0  0  0  0  0
   36.2561   19.3542   36.7852 O   0  0  0  0  0  0  0  0  0  0  0  0
   31.7354   18.6168   34.9077 O   0  0  0  0  0  0  0  0  0  0  0  0
   36.8556   14.6589   37.2770 O   0  0  0  0  0  0  0  0  0  0  0  0
   33.2629   16.0063   38.3653 O   0  0  0  0  0  0  0  0  0  0  0  0
   37.7842   16.4476   38.8210 O   0  0  0  0  0  0  0  0  0  0  0  0
   31.8386   17.5187   37.4380 C   0  0  0  0  0  0  0  0  0  0  0  0
   30.9734   16.4225   36.7085 O   0  0  0  0  0  0  0  0  0  0  0  0
   36.6990   18.8762   34.6579 O   0  0  0  0  0  0  0  0  0  0  0  0
   33.1318   18.9248   37.2489 O   0  0  0  0  0  0  0  0  0  0  0  0
   38.4033   18.4120   36.8654 O   0  0  0  0  0  0  0  0  0  0  0  0
   35.9267   16.6888   37.2037 O   0  0  0  0  0  0  0  0  0  0  0  0
   33.3528   16.9445   36.9409 C   0  0  0  0  0  0  0  0  0  0  0  0
   34.7523   17.4093   37.1530 C   0  0  0  0  0  0  0  0  0  0  0  0
  2  1  1  0
  4  3  1  0
  5  1  1  0
  6  1  1  0
  8  7  1  0
  9  3  1  0
  9  5  1  0
 10  2  1  0
 11  8  1  0
 13  8  1  0
 14  2  1  0
 15 14  1  0
 16  5  2  0
 17  1  1  0
 18  3  1  0
 20 12  1  0
 20 14  1  0
 21 11  1  0
 21 19  1  0
 21 20  1  0
M  END
>  <ID>  (1) 
conformer_0

$$$$
