
     RDKit          3D

 19 19  0  0  0  0  0  0  0  0999 V2000
   32.1974   17.9822   36.4973 C   0  0  0  0  0  0  0  0  0  0  0  0
   33.0183   19.2252   36.3644 C   0  0  0  0  0  0  0  0  0  0  0  0
   33.5547   20.6911   35.7288 O   0  0  0  0  0  0  0  0  0  0  0  0
   33.0055   17.2457   37.2717 C   0  0  0  0  0  0  0  0  0  0  0  0
   37.3259   19.4220   35.7453 P   0  0  0  0  0  0  0  0  0  0  0  0
   36.2176   19.1357   36.7507 O   0  0  0  0  0  0  0  0  0  0  0  0
   38.0338   20.6359   35.8134 O   0  0  0  0  0  0  0  0  0  0  0  0
   36.3505   15.5087   38.1987 P   0  0  0  0  0  0  0  0  0  0  0  0
   31.7213   18.7361   34.9690 O   0  0  0  0  0  0  0  0  0  0  0  0
   35.6610   16.5591   37.3703 O   0  0  0  0  0  0  0  0  0  0  0  0
   35.4687   15.1250   39.4029 O   0  0  0  0  0  0  0  0  0  0  0  0
   32.8636   16.2989   38.5773 O   0  0  0  0  0  0  0  0  0  0  0  0
   37.5153   16.3270   38.7259 O   0  0  0  0  0  0  0  0  0  0  0  0
   36.4244   14.2468   37.5922 O   0  0  0  0  0  0  0  0  0  0  0  0
   34.5361   19.1045   36.4874 C   0  0  0  0  0  0  0  0  0  0  0  0
   36.4360   19.1755   34.5873 O   0  0  0  0  0  0  0  0  0  0  0  0
   38.4676   18.4457   36.1732 O   0  0  0  0  0  0  0  0  0  0  0  0
   34.6685   17.5145   37.3772 C   0  0  0  0  0  0  0  0  0  0  0  0
   31.1118   17.0411   37.1346 O   0  0  0  0  0  0  0  0  0  0  0  0
  2  1  1  0
  3  2  1  0
  4  1  1  0
  7  5  1  0
  9  1  1  0
 11  8  1  0
 12  4  1  0
 13  8  1  0
 14  8  1  0
 15  2  1  0
 15  6  1  0
 16  5  1  0
 16 15  1  0
 17  5  1  0
 18  4  1  0
 18 10  1  0
 18 14  1  0
 18 15  1  0
 19  1  1  0
M  END
>  <ID>  (1) 
conformer_0

$$$$
