
     RDKit          3D

 19 19  0  0  0  0  0  0  0  0999 V2000
   32.8130   17.2637   36.6883 C   0  0  0  0  0  0  0  0  0  0  0  0
   32.2678   18.4515   36.3721 C   0  0  0  0  0  0  0  0  0  0  0  0
   37.2421   19.2156   35.9941 P   0  0  0  0  0  0  0  0  0  0  0  0
   33.7309   20.5168   35.9252 O   0  0  0  0  0  0  0  0  0  0  0  0
   37.8990   20.4648   35.7958 O   0  0  0  0  0  0  0  0  0  0  0  0
   36.1493   15.3817   38.0799 P   0  0  0  0  0  0  0  0  0  0  0  0
   35.3392   15.3068   39.2934 O   0  0  0  0  0  0  0  0  0  0  0  0
   36.1858   19.1682   36.7362 O   0  0  0  0  0  0  0  0  0  0  0  0
   36.0202   13.8827   37.6627 O   0  0  0  0  0  0  0  0  0  0  0  0
   38.2944   18.2560   36.8124 O   0  0  0  0  0  0  0  0  0  0  0  0
   33.5783   19.4143   36.6031 C   0  0  0  0  0  0  0  0  0  0  0  0
   31.0259   17.9481   37.0234 O   0  0  0  0  0  0  0  0  0  0  0  0
   32.6197   17.8953   34.8968 O   0  0  0  0  0  0  0  0  0  0  0  0
   36.8113   18.5188   34.8358 O   0  0  0  0  0  0  0  0  0  0  0  0
   37.1428   16.2672   38.5789 O   0  0  0  0  0  0  0  0  0  0  0  0
   32.6863   16.5567   37.8750 O   0  0  0  0  0  0  0  0  0  0  0  0
   34.7150   18.6546   36.3096 C   0  0  0  0  0  0  0  0  0  0  0  0
   35.9119   15.9647   36.9134 O   0  0  0  0  0  0  0  0  0  0  0  0
   34.6266   17.1386   37.0281 C   0  0  0  0  0  0  0  0  0  0  0  0
  2  1  1  0
  5  3  1  0
  7  6  1  0
  8  3  1  0
 10  3  1  0
 11  2  1  0
 11  4  1  0
 12  2  1  0
 13  2  1  0
 15  6  1  0
 16  1  1  0
 17  8  1  0
 17 11  1  0
 17 14  1  0
 18  6  1  0
 19  1  1  0
 19  9  1  0
 19 17  1  0
 19 18  1  0
M  END
>  <ID>  (1) 
conformer_0

$$$$
