
     RDKit          3D

 18 18  0  0  0  0  0  0  0  0999 V2000
   34.1614   17.1310   37.2175 C   0  0  0  0  0  0  0  0  0  0  0  0
   32.8797   18.9621   36.4491 C   0  0  0  0  0  0  0  0  0  0  0  0
   37.8937   20.4673   35.9355 O   0  0  0  0  0  0  0  0  0  0  0  0
   37.3715   19.3959   35.6712 P   0  0  0  0  0  0  0  0  0  0  0  0
   33.8257   20.5022   35.7098 O   0  0  0  0  0  0  0  0  0  0  0  0
   37.4183   18.5523   34.5822 O   0  0  0  0  0  0  0  0  0  0  0  0
   36.3719   15.7290   37.9571 P   0  0  0  0  0  0  0  0  0  0  0  0
   34.4742   18.6951   36.4679 C   0  0  0  0  0  0  0  0  0  0  0  0
   36.9459   14.5940   37.5562 O   0  0  0  0  0  0  0  0  0  0  0  0
   37.1953   16.5823   38.5969 O   0  0  0  0  0  0  0  0  0  0  0  0
   35.0974   15.2726   39.3250 O   0  0  0  0  0  0  0  0  0  0  0  0
   32.7161   16.5034   38.5658 O   0  0  0  0  0  0  0  0  0  0  0  0
   32.2652   18.0245   35.1366 O   0  0  0  0  0  0  0  0  0  0  0  0
   35.3245   16.1354   37.3859 O   0  0  0  0  0  0  0  0  0  0  0  0
   32.4936   17.6701   37.0218 C   0  0  0  0  0  0  0  0  0  0  0  0
   38.3864   17.9997   36.8906 O   0  0  0  0  0  0  0  0  0  0  0  0
   36.0281   19.0538   36.1759 O   0  0  0  0  0  0  0  0  0  0  0  0
   31.0093   17.5429   37.2309 O   0  0  0  0  0  0  0  0  0  0  0  0
  4  3  1  0
  5  2  1  0
  6  4  1  0
  8  1  1  0
  8  2  1  0
  8  6  1  0
  9  1  1  0
 10  7  1  0
 11  7  1  0
 13  2  1  0
 14  1  1  0
 14  7  1  0
 15  1  1  0
 15  2  1  0
 15 12  1  0
 16  4  1  0
 17  8  1  0
 18 15  1  0
M  END
>  <ID>  (1) 
conformer_0

$$$$
