
     RDKit          3D

 17 17  0  0  0  0  0  0  0  0999 V2000
   33.5044   17.0955   37.3923 C   0  0  0  0  0  0  0  0  0  0  0  0
   34.6755   18.1376   36.6003 C   0  0  0  0  0  0  0  0  0  0  0  0
   37.4043   19.7243   35.8851 P   0  0  0  0  0  0  0  0  0  0  0  0
   33.8536   20.3804   35.5331 O   0  0  0  0  0  0  0  0  0  0  0  0
   35.8780   15.3209   38.0752 P   0  0  0  0  0  0  0  0  0  0  0  0
   32.2995   17.8299   36.6971 C   0  0  0  0  0  0  0  0  0  0  0  0
   32.0301   18.0992   34.9174 O   0  0  0  0  0  0  0  0  0  0  0  0
   35.4090   14.9634   39.3141 O   0  0  0  0  0  0  0  0  0  0  0  0
   35.4218   14.1525   37.2472 O   0  0  0  0  0  0  0  0  0  0  0  0
   38.2913   18.5415   36.6101 O   0  0  0  0  0  0  0  0  0  0  0  0
   35.8989   19.3383   36.5827 O   0  0  0  0  0  0  0  0  0  0  0  0
   31.4855   16.6949   37.7584 O   0  0  0  0  0  0  0  0  0  0  0  0
   36.8883   19.7022   34.4693 O   0  0  0  0  0  0  0  0  0  0  0  0
   33.2195   18.9667   36.2707 C   0  0  0  0  0  0  0  0  0  0  0  0
   38.2230   20.5508   35.9641 O   0  0  0  0  0  0  0  0  0  0  0  0
   35.1836   16.3539   37.4198 O   0  0  0  0  0  0  0  0  0  0  0  0
   37.2649   15.9640   38.4366 O   0  0  0  0  0  0  0  0  0  0  0  0
  2  1  1  0
  6  1  1  0
  7  6  1  0
  8  5  1  0
  9  1  1  0
 10  3  1  0
 11  2  1  0
 12  6  1  0
 13  2  1  0
 13  3  1  0
 14  2  1  0
 14  4  1  0
 14  6  1  0
 15  3  1  0
 16  1  1  0
 16  5  1  0
 17  5  1  0
M  END
>  <ID>  (1) 
conformer_0

$$$$
