
     RDKit          3D

 20 19  0  0  0  0  0  0  0  0999 V2000
   32.7742   18.9071   36.2998 C   0  0  0  0  0  0  0  0  0  0  0  0
   34.5690   17.1462   36.9912 C   0  0  0  0  0  0  0  0  0  0  0  0
   34.1516   19.3610   36.4542 C   0  0  0  0  0  0  0  0  0  0  0  0
   37.3257   19.5004   35.6395 P   0  0  0  0  0  0  0  0  0  0  0  0
   33.7953   20.6836   35.6416 O   0  0  0  0  0  0  0  0  0  0  0  0
   37.1588   15.9264   37.8096 P   0  0  0  0  0  0  0  0  0  0  0  0
   38.0293   20.7953   35.7058 O   0  0  0  0  0  0  0  0  0  0  0  0
   36.5465   15.4695   39.2092 O   0  0  0  0  0  0  0  0  0  0  0  0
   37.1228   14.5167   37.3915 O   0  0  0  0  0  0  0  0  0  0  0  0
   31.9518   18.4435   34.8439 O   0  0  0  0  0  0  0  0  0  0  0  0
   34.0080   15.9937   38.8081 O   0  0  0  0  0  0  0  0  0  0  0  0
   35.8605   19.4234   36.2788 O   0  0  0  0  0  0  0  0  0  0  0  0
   37.9912   16.9126   38.2036 O   0  0  0  0  0  0  0  0  0  0  0  0
   33.2194   16.9826   37.5861 C   0  0  0  0  0  0  0  0  0  0  0  0
   31.8131   16.5789   38.6499 O   0  0  0  0  0  0  0  0  0  0  0  0
   36.9730   18.8906   34.5319 O   0  0  0  0  0  0  0  0  0  0  0  0
   36.3002   16.7286   36.8219 O   0  0  0  0  0  0  0  0  0  0  0  0
   32.1202   17.8040   37.0000 C   0  0  0  0  0  0  0  0  0  0  0  0
   30.7212   17.5489   36.7744 O   0  0  0  0  0  0  0  0  0  0  0  0
   38.4139   18.6879   36.6524 O   0  0  0  0  0  0  0  0  0  0  0  0
  3  1  1  0
  5  3  1  0
  7  4  1  0
  8  6  1  0
  9  2  1  0
  9  6  1  0
 10  1  1  0
 12  3  1  0
 13  6  1  0
 14  2  1  0
 14 11  1  0
 15 14  1  0
 16  3  1  0
 16  4  1  0
 17  2  1  0
 18  1  1  0
 18 14  1  0
 19 18  1  0
 20  4  1  0
M  END
>  <ID>  (1) 
conformer_0

$$$$
