
     RDKit          3D

 19 19  0  0  0  0  0  0  0  0999 V2000
   32.9193   17.0072   37.4749 C   0  0  0  0  0  0  0  0  0  0  0  0
   32.2791   17.7579   36.4498 C   0  0  0  0  0  0  0  0  0  0  0  0
   34.5341   18.9324   36.3382 C   0  0  0  0  0  0  0  0  0  0  0  0
   33.7220   20.3909   35.6746 O   0  0  0  0  0  0  0  0  0  0  0  0
   37.4221   19.1563   35.9977 P   0  0  0  0  0  0  0  0  0  0  0  0
   36.0257   15.8809   39.0899 O   0  0  0  0  0  0  0  0  0  0  0  0
   38.0430   20.5126   35.7209 O   0  0  0  0  0  0  0  0  0  0  0  0
   36.9618   16.2021   37.9886 P   0  0  0  0  0  0  0  0  0  0  0  0
   37.0421   18.4801   34.8250 O   0  0  0  0  0  0  0  0  0  0  0  0
   37.1384   14.8547   37.4382 O   0  0  0  0  0  0  0  0  0  0  0  0
   32.3197   17.6942   34.9334 O   0  0  0  0  0  0  0  0  0  0  0  0
   31.1426   17.0156   37.4237 O   0  0  0  0  0  0  0  0  0  0  0  0
   33.2016   16.0629   38.5684 O   0  0  0  0  0  0  0  0  0  0  0  0
   34.5163   17.3652   37.0062 C   0  0  0  0  0  0  0  0  0  0  0  0
   37.7693   17.0054   38.6183 O   0  0  0  0  0  0  0  0  0  0  0  0
   35.9968   17.0342   37.0194 O   0  0  0  0  0  0  0  0  0  0  0  0
   36.4281   19.4433   36.7113 O   0  0  0  0  0  0  0  0  0  0  0  0
   38.7452   18.4560   36.5516 O   0  0  0  0  0  0  0  0  0  0  0  0
   32.9764   18.9691   36.2375 C   0  0  0  0  0  0  0  0  0  0  0  0
  2  1  1  0
  7  5  1  0
  8  6  1  0
  9  3  1  0
 10  8  1  0
 11  2  1  0
 12  2  1  0
 13  1  1  0
 14  1  1  0
 14  3  1  0
 14 10  1  0
 15  8  1  0
 16 14  1  0
 17  3  1  0
 17  5  1  0
 18  5  1  0
 19  2  1  0
 19  3  1  0
 19  4  1  0
M  END
>  <ID>  (1) 
conformer_0

$$$$
