
     RDKit          3D

 19 19  0  0  0  0  0  0  0  0999 V2000
   33.0406   17.3812   37.5373 C   0  0  0  0  0  0  0  0  0  0  0  0
   34.6352   17.2767   37.1209 C   0  0  0  0  0  0  0  0  0  0  0  0
   37.9408   20.5200   35.9639 O   0  0  0  0  0  0  0  0  0  0  0  0
   37.4064   19.1996   36.0018 P   0  0  0  0  0  0  0  0  0  0  0  0
   34.5078   18.9548   36.3040 C   0  0  0  0  0  0  0  0  0  0  0  0
   34.0554   20.5099   35.4729 O   0  0  0  0  0  0  0  0  0  0  0  0
   35.9320   19.0667   36.5167 O   0  0  0  0  0  0  0  0  0  0  0  0
   36.5732   15.4577   37.8333 P   0  0  0  0  0  0  0  0  0  0  0  0
   35.5375   15.1762   39.0043 O   0  0  0  0  0  0  0  0  0  0  0  0
   36.7470   14.2452   37.2550 O   0  0  0  0  0  0  0  0  0  0  0  0
   32.1436   18.4695   34.9443 O   0  0  0  0  0  0  0  0  0  0  0  0
   32.7141   16.3604   38.4719 O   0  0  0  0  0  0  0  0  0  0  0  0
   37.4726   16.2908   38.6258 O   0  0  0  0  0  0  0  0  0  0  0  0
   37.3123   18.3517   34.9085 O   0  0  0  0  0  0  0  0  0  0  0  0
   32.4598   18.1252   36.4918 C   0  0  0  0  0  0  0  0  0  0  0  0
   35.8735   16.4365   36.9436 O   0  0  0  0  0  0  0  0  0  0  0  0
   38.2823   18.4798   37.1394 O   0  0  0  0  0  0  0  0  0  0  0  0
   31.1054   17.6869   37.3929 O   0  0  0  0  0  0  0  0  0  0  0  0
   33.1401   19.4010   36.2149 C   0  0  0  0  0  0  0  0  0  0  0  0
  2  1  1  0
  4  3  1  0
  5  2  1  0
  7  5  1  0
  9  8  1  0
 10  2  1  0
 10  8  1  0
 12  1  1  0
 13  8  1  0
 14  4  1  0
 14  5  1  0
 15  1  1  0
 15 11  1  0
 16  2  1  0
 17  4  1  0
 18 15  1  0
 19  5  1  0
 19  6  1  0
 19 15  1  0
M  END
>  <ID>  (1) 
conformer_0

$$$$
