
     RDKit          3D

 19 19  0  0  0  0  0  0  0  0999 V2000
   33.4109   19.0516   36.3122 C   0  0  0  0  0  0  0  0  0  0  0  0
   34.9329   18.5458   36.3821 C   0  0  0  0  0  0  0  0  0  0  0  0
   37.3056   19.4546   35.6602 P   0  0  0  0  0  0  0  0  0  0  0  0
   33.5954   20.4701   35.9704 O   0  0  0  0  0  0  0  0  0  0  0  0
   37.9164   20.3718   35.3155 O   0  0  0  0  0  0  0  0  0  0  0  0
   36.5716   19.6954   36.8834 O   0  0  0  0  0  0  0  0  0  0  0  0
   35.3411   15.1449   39.2519 O   0  0  0  0  0  0  0  0  0  0  0  0
   36.2194   15.4670   38.2685 P   0  0  0  0  0  0  0  0  0  0  0  0
   31.7819   18.3788   36.3576 C   0  0  0  0  0  0  0  0  0  0  0  0
   35.1669   16.5686   37.1793 O   0  0  0  0  0  0  0  0  0  0  0  0
   30.5897   17.2988   36.7806 O   0  0  0  0  0  0  0  0  0  0  0  0
   32.6543   16.1445   38.0143 O   0  0  0  0  0  0  0  0  0  0  0  0
   37.3793   16.2591   38.8813 O   0  0  0  0  0  0  0  0  0  0  0  0
   36.4245   18.7537   34.8680 O   0  0  0  0  0  0  0  0  0  0  0  0
   38.4539   18.4063   36.2230 O   0  0  0  0  0  0  0  0  0  0  0  0
   34.0520   17.0428   37.0383 C   0  0  0  0  0  0  0  0  0  0  0  0
   31.3923   18.4941   35.0240 O   0  0  0  0  0  0  0  0  0  0  0  0
   36.4173   14.6691   37.3608 O   0  0  0  0  0  0  0  0  0  0  0  0
   32.3753   17.6761   37.1341 C   0  0  0  0  0  0  0  0  0  0  0  0
  2  1  1  0
  4  1  1  0
  5  3  1  0
  6  2  1  0
  8  7  1  0
  9  1  1  0
 11  9  1  0
 13  8  1  0
 14  2  1  0
 14  3  1  0
 15  3  1  0
 16  2  1  0
 16 10  1  0
 17  9  1  0
 18  8  1  0
 18 16  1  0
 19  9  1  0
 19 12  1  0
 19 16  1  0
M  END
>  <ID>  (1) 
conformer_0

$$$$
