
     RDKit          3D

 19 18  0  0  0  0  0  0  0  0999 V2000
   33.3621   17.1594   37.4195 C   0  0  0  0  0  0  0  0  0  0  0  0
   32.3196   17.7849   36.4865 C   0  0  0  0  0  0  0  0  0  0  0  0
   33.6065   20.6419   35.7205 O   0  0  0  0  0  0  0  0  0  0  0  0
   37.3078   19.3660   35.8848 P   0  0  0  0  0  0  0  0  0  0  0  0
   38.0186   20.4599   35.8070 O   0  0  0  0  0  0  0  0  0  0  0  0
   32.9573   19.1605   36.3093 C   0  0  0  0  0  0  0  0  0  0  0  0
   35.8900   19.3491   36.6735 O   0  0  0  0  0  0  0  0  0  0  0  0
   36.5494   14.4964   37.1296 O   0  0  0  0  0  0  0  0  0  0  0  0
   36.6448   15.6576   37.8954 P   0  0  0  0  0  0  0  0  0  0  0  0
   35.7800   15.0157   39.1280 O   0  0  0  0  0  0  0  0  0  0  0  0
   32.1210   18.4113   35.0137 O   0  0  0  0  0  0  0  0  0  0  0  0
   31.4448   16.6887   37.0575 O   0  0  0  0  0  0  0  0  0  0  0  0
   36.5833   18.8813   34.6341 O   0  0  0  0  0  0  0  0  0  0  0  0
   38.3017   18.2340   36.6268 O   0  0  0  0  0  0  0  0  0  0  0  0
   37.6278   16.2328   38.6996 O   0  0  0  0  0  0  0  0  0  0  0  0
   33.1523   16.2090   38.5159 O   0  0  0  0  0  0  0  0  0  0  0  0
   35.7044   16.6214   37.3136 O   0  0  0  0  0  0  0  0  0  0  0  0
   34.4201   19.1968   36.5093 C   0  0  0  0  0  0  0  0  0  0  0  0
   34.8487   17.3843   37.3730 C   0  0  0  0  0  0  0  0  0  0  0  0
  2  1  1  0
  5  4  1  0
  6  2  1  0
  6  3  1  0
  9  8  1  0
 10  9  1  0
 11  2  1  0
 12  2  1  0
 13  4  1  0
 14  4  1  0
 15  9  1  0
 16  1  1  0
 18  6  1  0
 18  7  2  0
 18 13  1  0
 19  1  1  0
 19  8  1  0
 19 17  1  0
M  END
>  <ID>  (1) 
conformer_0

$$$$
