
     RDKit          3D

 19 19  0  0  0  0  0  0  0  0999 V2000
   32.4924   17.3997   36.9798 C   0  0  0  0  0  0  0  0  0  0  0  0
   34.2126   17.1057   37.1825 C   0  0  0  0  0  0  0  0  0  0  0  0
   37.4069   19.3687   35.5223 P   0  0  0  0  0  0  0  0  0  0  0  0
   37.7865   20.7501   35.7693 O   0  0  0  0  0  0  0  0  0  0  0  0
   33.7662   20.6096   35.6575 O   0  0  0  0  0  0  0  0  0  0  0  0
   32.3491   18.4679   36.2055 C   0  0  0  0  0  0  0  0  0  0  0  0
   36.8155   15.4975   38.2252 P   0  0  0  0  0  5  0  0  0  0  0  0
   35.7684   15.3440   39.3679 O   0  0  0  0  0  0  0  0  0  0  0  0
   35.7985   19.0529   36.1217 O   0  0  0  0  0  0  0  0  0  0  0  0
   36.4120   14.1705   37.4632 O   0  0  0  0  0  0  0  0  0  0  0  0
   33.1404   16.5330   38.4250 O   0  0  0  0  0  0  0  0  0  0  0  0
   31.9043   18.1447   34.9348 O   0  0  0  0  0  0  0  0  0  0  0  0
   37.3440   18.6324   34.5385 O   0  0  0  0  0  0  0  0  0  0  0  0
   33.5710   19.4588   36.3179 C   0  0  0  0  0  0  0  0  0  0  0  0
   31.0081   17.8522   37.3434 O   0  0  0  0  0  0  0  0  0  0  0  0
   37.8196   15.8103   38.9385 O   0  0  0  0  0  0  0  0  0  0  0  0
   38.4812   19.1229   36.4233 O   0  0  0  0  0  0  0  0  0  0  0  0
   34.9809   18.3164   36.3223 C   0  0  0  0  0  0  0  0  0  0  0  0
   36.4972   16.2280   37.0836 O   0  0  0  0  0  0  0  0  0  0  0  0
  2  1  1  0
  4  3  1  0
  6  1  1  0
  7  2  1  0
  8  7  1  0
 11  2  1  0
 12  6  1  0
 13  3  1  0
 14  5  1  0
 14  6  1  0
 15  1  1  0
 16  7  1  0
 17  3  1  0
 18  2  1  0
 18  9  1  0
 18 13  1  0
 18 14  1  0
 19  7  1  0
 19 10  1  0
M  END
>  <ID>  (1) 
conformer_0

$$$$
