
     RDKit          3D

 18 18  0  0  0  0  0  0  0  0999 V2000
   33.4674   19.5010   36.4717 C   0  0  0  0  0  0  0  0  0  0  0  0
   32.1768   18.4503   36.1789 C   0  0  0  0  0  0  0  0  0  0  0  0
   33.5360   20.6652   35.8219 O   0  0  0  0  0  0  0  0  0  0  0  0
   32.4327   17.4621   36.8919 C   0  0  0  0  0  0  0  0  0  0  0  0
   36.4329   15.5568   38.2290 P   0  0  0  0  0  0  0  0  0  0  0  0
   37.5438   19.3306   35.9748 P   0  0  0  0  0  0  0  0  0  0  0  0
   35.4909   15.0207   39.3984 O   0  0  0  0  0  0  0  0  0  0  0  0
   36.0272   18.9303   36.3549 O   0  0  0  0  0  0  0  0  0  0  0  0
   38.4778   18.0534   36.4648 O   0  0  0  0  0  0  0  0  0  0  0  0
   36.6290   14.3084   37.5359 O   0  0  0  0  0  0  0  0  0  0  0  0
   35.2710   16.4456   37.4969 O   0  0  0  0  0  0  0  0  0  0  0  0
   31.3743   18.3945   34.9479 O   0  0  0  0  0  0  0  0  0  0  0  0
   36.8068   20.0030   34.5239 O   0  0  0  0  0  0  0  0  0  0  0  0
   38.0896   20.3290   36.1647 O   0  0  0  0  0  0  0  0  0  0  0  0
   37.3925   16.3386   38.8706 O   0  0  0  0  0  0  0  0  0  0  0  0
   34.6398   18.5241   36.5861 C   0  0  0  0  0  0  0  0  0  0  0  0
   31.2299   16.9906   36.9672 O   0  0  0  0  0  0  0  0  0  0  0  0
   33.9796   17.0047   37.3448 C   0  0  0  0  0  0  0  0  0  0  0  0
  2  1  1  0
  3  1  1  0
  4  2  1  0
  7  5  1  0
  8  6  1  0
  9  6  1  0
 10  5  1  0
 12  2  1  0
 14  6  1  0
 15  5  1  0
 16  1  1  0
 16  8  1  0
 16 13  1  0
 17  4  1  0
 18  4  1  0
 18 10  1  0
 18 11  1  0
 18 16  1  0
M  END
>  <ID>  (1) 
conformer_0

$$$$
