
     RDKit          3D

 18 18  0  0  0  0  0  0  0  0999 V2000
   33.3590   19.1766   36.3116 C   0  0  0  0  0  0  0  0  0  0  0  0
   31.9343   18.0912   36.7289 C   0  0  0  0  0  0  0  0  0  0  0  0
   37.3272   19.4734   35.7569 P   0  0  0  0  0  0  0  0  0  0  0  0
   33.7025   20.5514   35.7573 O   0  0  0  0  0  0  0  0  0  0  0  0
   37.9868   20.6616   35.6306 O   0  0  0  0  0  0  0  0  0  0  0  0
   36.0223   19.1782   36.5799 O   0  0  0  0  0  0  0  0  0  0  0  0
   36.2804   15.4290   38.2530 P   0  0  0  0  0  0  0  0  0  0  0  0
   35.5209   15.1716   39.5099 O   0  0  0  0  0  0  0  0  0  0  0  0
   32.6650   17.3058   37.5005 C   0  0  0  0  0  0  0  0  0  0  0  0
   30.6908   17.5134   37.0273 O   0  0  0  0  0  0  0  0  0  0  0  0
   36.5100   14.0705   37.7271 O   0  0  0  0  0  0  0  0  0  0  0  0
   32.7619   17.9251   35.1529 O   0  0  0  0  0  0  0  0  0  0  0  0
   35.3594   16.4077   37.2726 O   0  0  0  0  0  0  0  0  0  0  0  0
   38.2808   18.7222   36.7007 O   0  0  0  0  0  0  0  0  0  0  0  0
   36.9089   18.6660   34.6311 O   0  0  0  0  0  0  0  0  0  0  0  0
   37.3310   16.2922   38.6967 O   0  0  0  0  0  0  0  0  0  0  0  0
   34.5888   18.9350   36.4677 C   0  0  0  0  0  0  0  0  0  0  0  0
   34.4225   17.2498   37.2922 C   0  0  0  0  0  0  0  0  0  0  0  0
  2  1  1  0
  4  1  1  0
  5  3  1  0
  8  7  1  0
  9  2  1  0
 10  2  1  0
 11  7  1  0
 12  2  1  0
 14  3  1  0
 15  3  1  0
 16  7  1  0
 17  1  1  0
 17  6  1  0
 17 15  1  0
 18  9  1  0
 18 11  1  0
 18 13  1  0
 18 17  1  0
M  END
>  <ID>  (1) 
conformer_0

$$$$
