
     RDKit          3D

 17 17  0  0  0  0  0  0  0  0999 V2000
   32.6818   18.7005   36.2911 C   0  0  0  0  0  0  0  0  0  0  0  0
   32.6113   17.5762   36.9375 C   0  0  0  0  0  0  0  0  0  0  0  0
   37.2323   19.2101   35.6631 P   0  0  0  0  0  0  0  0  0  0  0  0
   36.3363   15.7394   38.1756 P   0  0  0  0  0  0  0  0  0  0  0  0
   35.8347   15.1973   39.4643 O   0  0  0  0  0  0  0  0  0  0  0  0
   33.9428   20.3075   35.4950 O   0  0  0  0  0  0  0  0  0  0  0  0
   34.3660   17.3104   37.1129 C   0  0  0  0  0  0  0  0  0  0  0  0
   31.8587   18.6490   34.9561 O   0  0  0  0  0  0  0  0  0  0  0  0
   36.0056   15.2540   37.3004 O   0  0  0  0  0  0  0  0  0  0  0  0
   35.9294   18.0494   36.3451 O   0  0  0  0  0  0  0  0  0  0  0  0
   31.3009   16.7060   37.0266 O   0  0  0  0  0  0  0  0  0  0  0  0
   38.3875   18.4629   36.6529 O   0  0  0  0  0  0  0  0  0  0  0  0
   37.5254   16.4780   38.6366 O   0  0  0  0  0  0  0  0  0  0  0  0
   34.3421   18.8782   36.2518 C   0  0  0  0  0  0  0  0  0  0  0  0
   37.1698   18.8791   34.4200 O   0  0  0  0  0  0  0  0  0  0  0  0
   37.0065   20.1566   36.3131 O   0  0  0  0  0  0  0  0  0  0  0  0
   33.4732   16.1501   38.5654 O   0  0  0  0  0  0  0  0  0  0  0  0
  2  1  1  0
  5  4  1  0
  7  2  1  0
  8  1  1  0
  9  4  1  0
  9  7  1  0
 10  3  1  0
 11  2  1  0
 12  3  1  0
 13  4  1  0
 14  1  1  0
 14  6  1  0
 14  7  1  0
 14 10  1  0
 16  3  1  0
 16 15  1  0
 17  7  1  0
M  END
>  <ID>  (1) 
conformer_0

$$$$
