
     RDKit          3D

 21 21  0  0  0  0  0  0  0  0999 V2000
   32.3379   18.2719   35.8046 C   0  0  0  0  0  0  0  0  0  0  0  0
   33.1924   19.6321   36.1971 C   0  0  0  0  0  0  0  0  0  0  0  0
   32.2890   17.7554   37.1983 C   0  0  0  0  0  0  0  0  0  0  0  0
   37.7629   19.0614   35.8948 P   0  0  0  0  0  0  0  0  0  0  0  0
   39.0214   18.3386   36.1738 O   0  0  0  0  0  0  0  0  0  0  0  0
   33.5941   20.5826   35.4927 O   0  0  0  0  0  0  0  0  0  0  0  0
   37.2360   16.0789   37.7889 P   0  0  0  0  0  4  0  0  0  0  0  0
   36.4087   15.7954   39.1116 O   0  0  0  0  0  0  0  0  0  0  0  0
   37.1165   14.8767   37.0874 O   0  0  0  0  0  0  0  0  0  0  0  0
   36.1210   19.4067   36.5864 O   0  0  0  0  0  0  0  0  0  0  0  0
   31.7393   18.5895   34.9345 O   0  0  0  0  0  0  0  0  0  0  0  0
   32.7402   16.0211   38.6620 O   0  0  0  0  0  0  0  0  0  0  0  0
   33.2157   16.7513   37.5978 C   0  0  0  0  0  0  0  0  0  0  0  0
   30.9984   17.6785   37.3356 O   0  0  0  0  0  0  0  0  0  0  0  0
   38.4260   16.5332   38.0696 O   0  0  0  0  0  0  0  0  0  0  0  0
   37.0952   19.0138   34.4537 O   0  0  0  0  0  0  0  0  0  0  0  0
   35.3802   16.7026   37.4081 O   0  0  0  0  0  0  0  0  0  0  0  0
   38.1950   20.4747   35.8818 O   0  0  0  0  0  0  0  0  0  0  0  0
   34.6616   17.5150   37.1260 C   0  0  0  0  0  0  0  0  0  0  0  0
   34.5895   19.0124   36.2488 C   0  0  0  0  0  0  0  0  0  0  0  0
   37.2180   17.3988   36.1657 O   0  0  0  0  0  1  0  0  0  0  0  0
  2  1  1  0
  3  1  1  0
  5  4  1  0
  6  2  1  0
  8  7  1  0
  9  7  1  0
 11  1  1  0
 13  3  1  0
 13 12  1  0
 14  3  1  0
 15  7  1  0
 16  4  1  0
 18  4  1  0
 19  9  1  0
 19 13  1  0
 19 17  1  0
 20  2  1  0
 20 10  1  0
 20 16  1  0
 20 19  1  0
 21  7  1  0
M  RAD  2   7   2  21   2
M  END
>  <ID>  (1) 
conformer_0

$$$$
