
     RDKit          3D

 20 20  0  0  0  0  0  0  0  0999 V2000
   34.5843   18.8757   36.4085 C   0  0  0  0  0  0  0  0  0  0  0  0
   34.5547   17.1691   37.3165 C   0  0  0  0  0  0  0  0  0  0  0  0
   37.8044   20.4750   35.6123 O   0  0  0  0  0  0  0  0  0  0  0  0
   33.8077   20.7158   35.7079 O   0  0  0  0  0  0  0  0  0  0  0  0
   37.3484   19.0904   35.9139 P   0  0  0  0  0  0  0  0  0  0  0  0
   33.0395   17.2388   37.4566 C   0  0  0  0  0  0  0  0  0  0  0  0
   35.8723   19.1687   36.5866 O   0  0  0  0  0  0  0  0  0  0  0  0
   37.7008   16.7076   38.2075 O   0  0  0  0  0  0  0  0  0  0  0  0
   37.2743   14.5217   37.4856 O   0  0  0  0  0  0  0  0  0  0  0  0
   38.3897   18.5569   36.7915 O   0  0  0  0  0  0  0  0  0  0  0  0
   36.5130   15.5455   37.8838 P   0  0  0  0  0  5  0  0  0  0  0  0
   33.3177   16.2261   38.6967 O   0  0  0  0  0  0  0  0  0  0  0  0
   31.2232   17.2619   37.3092 O   0  0  0  0  0  0  0  0  0  0  0  0
   37.1381   18.3503   34.8159 O   0  0  0  0  0  0  0  0  0  0  0  0
   32.4982   18.1295   36.3568 C   0  0  0  0  0  0  0  0  0  0  0  0
   31.6328   18.4788   35.4133 O   0  0  0  0  0  0  0  0  0  0  0  0
   35.7642   16.6748   37.0961 O   0  0  0  0  0  0  0  0  0  0  0  0
   35.1474   14.3912   37.6607 O   0  0  0  0  0  0  0  0  0  0  0  0
   33.2336   19.4461   36.2745 C   0  0  0  0  0  0  0  0  0  0  0  0
   36.0430   15.7785   39.2072 O   0  0  0  0  0  0  0  0  0  0  0  0
  2  1  1  0
  5  3  1  0
  6  2  1  0
  7  1  1  0
 10  5  1  0
 11  8  1  0
 11  9  1  0
 12  6  1  0
 14  1  1  0
 14  5  1  0
 15  6  1  0
 15 13  1  0
 16 15  1  0
 17  2  1  0
 17 11  1  0
 18  9  1  0
 19  1  1  0
 19  4  1  0
 19 15  1  0
 20 11  1  0
M  END
>  <ID>  (1) 
conformer_0

$$$$
