
     RDKit          3D

 19 19  0  0  0  0  0  0  0  0999 V2000
   34.5599   17.3414   37.5267 C   0  0  0  0  0  0  0  0  0  0  0  0
   34.7353   18.6658   36.4064 C   0  0  0  0  0  0  0  0  0  0  0  0
   32.0259   18.1996   36.5596 C   0  0  0  0  0  0  0  0  0  0  0  0
   38.1181   20.4230   35.7764 O   0  0  0  0  0  0  0  0  0  0  0  0
   37.7814   19.1346   35.8636 P   0  0  0  0  0  0  0  0  0  0  0  0
   33.8944   20.4332   35.6412 O   0  0  0  0  0  0  0  0  0  0  0  0
   36.3922   15.7703   38.1814 P   0  0  0  0  0  0  0  0  0  0  0  0
   36.8607   14.8302   37.2854 O   0  0  0  0  0  0  0  0  0  0  0  0
   36.3448   18.8212   36.5095 O   0  0  0  0  0  0  0  0  0  0  0  0
   31.8832   18.4247   34.9501 O   0  0  0  0  0  0  0  0  0  0  0  0
   35.5179   15.1893   39.2549 O   0  0  0  0  0  0  0  0  0  0  0  0
   38.7895   18.2221   36.7888 O   0  0  0  0  0  0  0  0  0  0  0  0
   32.8361   16.2879   38.5206 O   0  0  0  0  0  0  0  0  0  0  0  0
   33.3249   19.1137   36.1391 C   0  0  0  0  0  0  0  0  0  0  0  0
   30.9431   17.0040   36.8215 O   0  0  0  0  0  0  0  0  0  0  0  0
   37.4345   18.5288   34.7138 O   0  0  0  0  0  0  0  0  0  0  0  0
   37.5442   16.5638   38.6348 O   0  0  0  0  0  0  0  0  0  0  0  0
   35.4442   16.4940   37.5639 O   0  0  0  0  0  0  0  0  0  0  0  0
   32.8239   17.4650   37.3913 C   0  0  0  0  0  0  0  0  0  0  0  0
  2  1  1  0
  5  4  1  0
  8  1  1  0
  9  2  1  0
 10  3  1  0
 11  7  1  0
 12  5  1  0
 14  2  1  0
 14  3  1  0
 14  6  1  0
 15  3  1  0
 16  2  1  0
 16  5  1  0
 17  7  1  0
 18  1  1  0
 18  7  1  0
 19  1  1  0
 19  3  1  0
 19 13  1  0
M  END
>  <ID>  (1) 
conformer_0

$$$$
