
     RDKit          3D

 20 20  0  0  0  0  0  0  0  0999 V2000
   33.4914   16.8831   37.5275 C   0  0  0  0  0  0  0  0  0  0  0  0
   32.2005   18.0873   36.2243 C   0  0  0  0  0  0  0  0  0  0  0  0
   32.2012   17.6020   37.5818 C   0  0  0  0  0  0  0  0  0  0  0  0
   33.8985   20.4600   35.5808 O   0  0  0  0  0  0  0  0  0  0  0  0
   37.6382   19.2993   35.8782 P   0  0  0  0  0  5  0  0  0  0  0  0
   31.8261   18.4660   34.9428 O   0  0  0  0  0  0  0  0  0  0  0  0
   36.6084   19.5000   36.7517 O   0  0  0  0  0  0  0  0  0  0  0  0
   36.2214   15.5611   38.9945 O   0  0  0  0  0  0  0  0  0  0  0  0
   37.9280   20.5459   35.3252 O   0  0  0  0  0  0  0  0  0  0  0  0
   37.0122   14.8426   37.1588 O   0  0  0  0  0  0  0  0  0  0  0  0
   31.0557   17.0325   37.8607 O   0  0  0  0  0  0  0  0  0  0  0  0
   36.9438   15.9802   37.8737 P   0  0  0  0  0  0  0  0  0  0  0  0
   33.0162   19.2576   36.2437 C   0  0  0  0  0  0  0  0  0  0  0  0
   35.5414   17.0397   37.2224 O   0  0  0  0  0  0  0  0  0  0  0  0
   33.0797   15.9560   38.6900 O   0  0  0  0  0  0  0  0  0  0  0  0
   38.0512   16.8173   38.2062 O   0  0  0  0  0  0  0  0  0  0  0  0
   37.1837   18.2270   35.0306 O   0  0  0  0  0  0  0  0  0  0  0  0
   38.9854   18.7976   36.1881 O   0  0  0  0  0  0  0  0  0  0  0  0
   34.4307   18.9549   36.1052 C   0  0  0  0  0  0  0  0  0  0  0  0
   35.0773   17.6835   37.0183 C   0  0  0  0  0  0  0  0  0  0  0  0
  3  1  1  0
  3  2  1  0
  6  2  1  0
  7  5  1  0
  9  5  1  0
 11  3  1  0
 12  8  1  0
 12 10  1  0
 13  2  1  0
 13  4  1  0
 15  1  1  0
 16 12  1  0
 17  7  1  0
 18  5  1  0
 19  5  1  0
 19 13  1  0
 20  1  1  0
 20 10  1  0
 20 14  1  0
 20 19  1  0
M  END
>  <ID>  (1) 
conformer_0

$$$$
