
     RDKit          3D

 20 20  0  0  0  0  0  0  0  0999 V2000
   31.9441   17.8513   37.3201 C   0  0  0  0  0  0  0  0  0  0  0  0
   34.6703   17.4809   36.6171 C   0  0  0  0  0  0  0  0  0  0  0  0
   34.6317   19.1983   36.2003 C   0  0  0  0  0  0  0  0  0  0  0  0
   37.2757   19.3721   35.8391 P   0  0  0  0  0  0  0  0  0  0  0  0
   37.8763   20.4002   35.8236 O   0  0  0  0  0  0  0  0  0  0  0  0
   33.9254   20.4714   35.4942 O   0  0  0  0  0  0  0  0  0  0  0  0
   36.6983   15.7044   37.8994 P   0  0  0  0  0  0  0  0  0  0  0  0
   37.4526   16.4870   38.6081 O   0  0  0  0  0  0  0  0  0  0  0  0
   36.6825   18.8156   34.6843 O   0  0  0  0  0  0  0  0  0  0  0  0
   36.9627   14.5288   37.1999 O   0  0  0  0  0  0  0  0  0  0  0  0
   32.0132   18.4170   34.9184 O   0  0  0  0  0  0  0  0  0  0  0  0
   31.0152   16.9635   37.2038 O   0  0  0  0  0  0  0  0  0  0  0  0
   38.2660   18.2735   37.0184 O   0  0  0  0  0  0  0  0  0  0  0  0
   33.4519   17.0360   37.5065 C   0  0  0  0  0  0  0  0  0  0  0  0
   35.5338   16.3125   37.0208 O   0  0  0  0  0  0  0  0  0  0  0  0
   32.8236   15.9370   38.1855 O   0  0  0  0  0  0  0  0  0  0  0  0
   35.5410   15.2297   38.9963 O   0  0  0  0  0  0  0  0  0  0  0  0
   35.9839   19.0107   36.4960 O   0  0  0  0  0  0  0  0  0  0  0  0
   32.5607   18.0459   35.9590 C   0  0  0  0  0  0  0  0  0  0  0  0
   33.0945   19.5840   36.4184 C   0  0  0  0  0  0  0  0  0  0  0  0
  3  2  1  0
  5  4  1  0
  8  7  1  0
  9  3  1  0
  9  4  1  0
 10  2  1  0
 10  7  1  0
 12  1  1  0
 13  4  1  0
 14  1  1  0
 14  2  1  0
 15  2  1  0
 16 14  1  0
 17  7  1  0
 18  3  1  0
 19  1  1  0
 19 11  1  0
 20  3  1  0
 20  6  1  0
 20 19  1  0
M  END
>  <ID>  (1) 
conformer_0

$$$$
