
     RDKit          3D

 20 19  0  0  0  0  0  0  0  0999 V2000
   34.2188   17.1117   37.4052 C   0  0  0  0  0  0  0  0  0  0  0  0
   34.6891   18.5738   36.2821 C   0  0  0  0  0  0  0  0  0  0  0  0
   31.9587   18.2823   36.3911 C   0  0  0  0  0  0  0  0  0  0  0  0
   37.7668   19.4117   35.9470 P   0  0  0  0  0  0  0  0  0  0  0  0
   33.7673   20.4622   35.7309 O   0  0  0  0  0  0  0  0  0  0  0  0
   38.0989   20.5991   35.9876 O   0  0  0  0  0  0  0  0  0  0  0  0
   36.7107   15.5833   38.1267 P   0  0  0  0  0  0  0  0  0  0  0  0
   36.8313   18.7539   36.3735 O   0  0  0  0  0  0  0  0  0  0  0  0
   36.8821   14.1501   37.6369 O   0  0  0  0  0  0  0  0  0  0  0  0
   31.4972   18.3463   34.9934 O   0  0  0  0  0  0  0  0  0  0  0  0
   35.7553   15.2323   39.4098 O   0  0  0  0  0  0  0  0  0  0  0  0
   37.5931   19.2554   34.3938 O   0  0  0  0  0  0  0  0  0  0  0  0
   33.0382   16.2034   38.6266 O   0  0  0  0  0  0  0  0  0  0  0  0
   37.9534   16.4255   38.6621 O   0  0  0  0  0  0  0  0  0  0  0  0
   32.4973   17.4770   37.2749 C   0  0  0  0  0  0  0  0  0  0  0  0
   38.9010   18.4726   36.6548 O   0  0  0  0  0  0  0  0  0  0  0  0
   30.8312   17.0548   37.3463 O   0  0  0  0  0  0  0  0  0  0  0  0
   36.0905   16.1191   37.3900 O   0  0  0  0  0  0  0  0  0  0  0  0
   34.8454   18.1760   37.2177 O   0  0  0  0  0  0  0  0  0  0  0  0
   33.2590   19.0618   36.0613 C   0  0  0  0  0  0  0  0  0  0  0  0
  6  4  1  0
  8  2  1  0
  8  4  1  0
  9  1  1  0
 10  3  1  0
 11  7  1  0
 12  2  1  0
 13  1  1  0
 14  7  1  0
 15  3  1  0
 16  4  1  0
 17 15  1  0
 18  1  1  0
 18  7  1  0
 19  1  1  0
 19  2  1  0
 20  2  1  0
 20  3  1  0
 20  5  1  0
M  END
>  <ID>  (1) 
conformer_0

$$$$
