
     RDKit          3D

 18 17  0  0  0  0  0  0  0  0999 V2000
   34.2086   17.1273   37.1989 C   0  0  0  0  0  0  0  0  0  0  0  0
   34.7680   18.5256   36.5528 C   0  0  0  0  0  0  0  0  0  0  0  0
   32.1003   18.1358   36.2535 C   0  0  0  0  0  0  0  0  0  0  0  0
   37.6597   19.6302   35.7936 P   0  0  0  0  0  0  0  0  0  0  0  0
   33.9660   20.3331   35.6225 O   0  0  0  0  0  0  0  0  0  0  0  0
   36.4711   19.5229   36.7345 O   0  0  0  0  0  0  0  0  0  0  0  0
   34.9736   15.2259   39.4129 O   0  0  0  0  0  0  0  0  0  0  0  0
   36.5009   14.2103   37.9023 O   0  0  0  0  0  0  0  0  0  0  0  0
   36.1584   15.3692   38.4026 P   0  0  0  0  0  0  0  0  0  0  0  0
   38.7308   18.8053   36.3224 O   0  0  0  0  0  0  0  0  0  0  0  0
   37.4298   16.3236   38.8285 O   0  0  0  0  0  0  0  0  0  0  0  0
   32.0305   18.1404   34.8144 O   0  0  0  0  0  0  0  0  0  0  0  0
   32.2066   17.4779   37.0810 C   0  0  0  0  0  0  0  0  0  0  0  0
   35.3751   16.3474   37.3584 O   0  0  0  0  0  0  0  0  0  0  0  0
   37.0088   18.8418   34.7673 O   0  0  0  0  0  0  0  0  0  0  0  0
   30.4062   17.2720   36.2921 O   0  0  0  0  0  0  0  0  0  0  0  0
   38.1026   20.7859   35.4939 O   0  0  0  0  0  0  0  0  0  0  0  0
   33.5855   19.1159   36.2309 C   0  0  0  0  0  0  0  0  0  0  0  0
  2  1  1  0
  6  2  1  0
  8  1  1  0
  9  7  1  0
  9  8  1  0
 10  4  1  0
 11  9  1  0
 12  3  1  0
 13  3  1  0
 14  1  1  0
 15  2  1  0
 15  4  1  0
 16  3  1  0
 17  4  1  0
 18  2  1  0
 18  3  1  0
 18  5  1  0
M  END
>  <ID>  (1) 
conformer_0

$$$$
