
     RDKit          3D

 20 20  0  0  0  0  0  0  0  0999 V2000
   33.5544   19.3972   36.2960 C   0  0  0  0  0  0  0  0  0  0  0  0
   32.2342   18.4541   36.1204 C   0  0  0  0  0  0  0  0  0  0  0  0
   37.6958   19.4861   35.8507 P   0  0  0  0  0  0  0  0  0  0  0  0
   33.7349   20.5939   35.7748 O   0  0  0  0  0  0  0  0  0  0  0  0
   34.8426   18.1904   36.4993 C   0  0  0  0  0  0  0  0  0  0  0  0
   36.2630   15.2463   38.3693 P   0  0  0  0  0  0  0  0  0  0  0  0
   36.7795   19.9603   36.6417 O   0  0  0  0  0  0  0  0  0  0  0  0
   35.4202   14.8000   39.3588 O   0  0  0  0  0  0  0  0  0  0  0  0
   38.7689   18.7287   36.5118 O   0  0  0  0  0  0  0  0  0  0  0  0
   35.6065   16.2350   37.6372 O   0  0  0  0  0  0  0  0  0  0  0  0
   31.8078   18.2705   34.8327 O   0  0  0  0  0  0  0  0  0  0  0  0
   30.9788   17.0168   36.9805 O   0  0  0  0  0  0  0  0  0  0  0  0
   37.2197   18.4726   34.7427 O   0  0  0  0  0  0  0  0  0  0  0  0
   32.6842   17.5319   36.8876 C   0  0  0  0  0  0  0  0  0  0  0  0
   37.4323   15.9006   39.0209 O   0  0  0  0  0  0  0  0  0  0  0  0
   36.2567   14.1986   37.3590 O   0  0  0  0  0  0  0  0  0  0  0  0
   38.2669   20.6277   35.6772 O   0  0  0  0  0  0  0  0  0  0  0  0
   32.7479   16.1078   38.0671 O   0  0  0  0  0  0  0  0  0  0  0  0
   34.3260   17.0100   37.4929 C   0  0  0  0  0  0  0  0  0  0  0  0
   35.4258   18.6384   36.7694 O   0  0  0  0  0  0  0  0  0  0  0  0
  2  1  1  0
  4  1  1  0
  5  1  1  0
  7  3  1  0
  8  6  1  0
  9  3  1  0
 10  6  1  0
 11  2  1  0
 13  5  1  0
 14  2  1  0
 14 12  1  0
 15  6  1  0
 17  3  1  0
 18 14  1  0
 19  5  1  0
 19 10  1  0
 19 14  1  0
 19 16  1  0
 20  5  1  0
 20  7  1  0
M  END
>  <ID>  (1) 
conformer_0

$$$$
