
     RDKit          3D

 19 19  0  0  0  0  0  0  0  0999 V2000
   34.5609   18.2448   36.4741 C   0  0  0  0  0  0  0  0  0  0  0  0
   33.5906   17.1230   37.2631 C   0  0  0  0  0  0  0  0  0  0  0  0
   32.0348   17.7808   37.3198 C   0  0  0  0  0  0  0  0  0  0  0  0
   37.9915   20.4896   35.7181 O   0  0  0  0  0  0  0  0  0  0  0  0
   33.9709   20.4893   35.5246 O   0  0  0  0  0  0  0  0  0  0  0  0
   37.5683   19.1491   35.9956 P   0  0  0  0  0  0  0  0  0  0  0  0
   37.5156   16.6021   38.5260 O   0  0  0  0  0  0  0  0  0  0  0  0
   36.8681   14.5381   37.2586 O   0  0  0  0  0  0  0  0  0  0  0  0
   36.2188   19.0580   36.6108 O   0  0  0  0  0  0  0  0  0  0  0  0
   36.8337   15.9166   37.8227 P   0  0  0  0  0  5  0  0  0  0  0  0
   32.3888   17.5876   34.9391 O   0  0  0  0  0  0  0  0  0  0  0  0
   32.7294   16.4649   38.8239 O   0  0  0  0  0  0  0  0  0  0  0  0
   38.7742   18.2683   37.0127 O   0  0  0  0  0  0  0  0  0  0  0  0
   37.4466   18.3345   34.8917 O   0  0  0  0  0  0  0  0  0  0  0  0
   32.2213   18.3443   36.1418 C   0  0  0  0  0  0  0  0  0  0  0  0
   30.9384   17.1959   37.3122 O   0  0  0  0  0  0  0  0  0  0  0  0
   35.5937   15.7567   39.0976 O   0  0  0  0  0  0  0  0  0  0  0  0
   35.5585   16.0836   37.1043 O   0  0  0  0  0  0  0  0  0  0  0  0
   33.8116   19.4497   36.2982 C   0  0  0  0  0  0  0  0  0  0  0  0
  2  1  1  0
  3  2  1  0
  6  4  1  0
  9  1  1  0
 10  2  1  0
 10  7  1  0
 12  2  1  0
 13  6  1  0
 14  1  1  0
 14  6  1  0
 15  3  1  0
 15 11  1  0
 16  3  1  0
 17 10  1  0
 18  8  1  0
 18 10  1  0
 19  1  1  0
 19  5  1  0
 19 15  1  0
M  END
>  <ID>  (1) 
conformer_0

$$$$
