
     RDKit          3D

 19 19  0  0  0  0  0  0  0  0999 V2000
   34.7873   18.6814   36.4026 C   0  0  0  0  0  0  0  0  0  0  0  0
   32.2784   18.3453   36.2926 C   0  0  0  0  0  0  0  0  0  0  0  0
   38.1173   20.4700   35.9253 O   0  0  0  0  0  0  0  0  0  0  0  0
   37.5816   19.0990   35.9506 P   0  0  0  0  0  0  0  0  0  0  0  0
   34.3460   17.3743   37.3285 C   0  0  0  0  0  0  0  0  0  0  0  0
   33.6164   20.5152   35.4621 O   0  0  0  0  0  0  0  0  0  0  0  0
   36.1220   19.1564   36.4624 O   0  0  0  0  0  0  0  0  0  0  0  0
   31.8051   18.7506   34.9348 O   0  0  0  0  0  0  0  0  0  0  0  0
   36.4597   15.4150   38.0568 P   0  0  0  0  0  4  0  0  0  0  0  0
   36.4938   14.0196   37.7148 O   0  0  0  0  0  1  0  0  0  0  0  0
   37.4910   16.2351   38.6186 O   0  0  0  0  0  0  0  0  0  0  0  0
   31.1974   16.9162   37.1460 O   0  0  0  0  0  0  0  0  0  0  0  0
   38.4429   18.3232   37.1068 O   0  0  0  0  0  0  0  0  0  0  0  0
   37.5424   18.2882   34.8878 O   0  0  0  0  0  0  0  0  0  0  0  0
   35.9423   16.4621   37.1160 O   0  0  0  0  0  0  0  0  0  0  0  0
   32.5632   17.6283   37.3003 C   0  0  0  0  0  0  0  0  0  0  0  0
   33.0713   16.3224   38.5006 O   0  0  0  0  0  0  0  0  0  0  0  0
   35.5119   15.2394   39.3308 O   0  0  0  0  0  0  0  0  0  0  0  0
   33.6294   19.5110   36.2145 C   0  0  0  0  0  0  0  0  0  0  0  0
  4  3  1  0
  5  1  1  0
  7  1  1  0
  8  2  1  0
 10  9  1  0
 11  9  1  0
 13  4  1  0
 14  1  1  0
 14  4  1  0
 15  5  1  0
 15  9  1  0
 16  2  1  0
 16  5  1  0
 16 12  1  0
 17 16  1  0
 18  9  1  0
 19  1  1  0
 19  2  1  0
 19  6  1  0
M  RAD  2   9   2  10   2
M  END
>  <ID>  (1) 
conformer_0

$$$$
