
     RDKit          3D

 17 17  0  0  0  0  0  0  0  0999 V2000
   35.1085   17.4860   37.0653 C   0  0  0  0  0  0  0  0  0  0  0  0
   33.1123   17.5465   36.8428 C   0  0  0  0  0  0  0  0  0  0  0  0
   31.7902   18.2284   36.4662 C   0  0  0  0  0  0  0  0  0  0  0  0
   33.6643   20.6649   35.8007 O   0  0  0  0  0  0  0  0  0  0  0  0
   37.7556   19.0353   36.3238 P   0  0  0  0  0  0  0  0  0  0  0  0
   36.5474   19.0695   36.5728 O   0  0  0  0  0  0  0  0  0  0  0  0
   38.6556   17.9558   36.3628 O   0  0  0  0  0  0  0  0  0  0  0  0
   36.2469   15.5805   37.8525 P   0  0  0  0  0  0  0  0  0  0  0  0
   36.0088   14.2995   37.2352 O   0  0  0  0  0  0  0  0  0  0  0  0
   31.9123   18.2611   34.9206 O   0  0  0  0  0  0  0  0  0  0  0  0
   35.6033   15.3735   39.0778 O   0  0  0  0  0  0  0  0  0  0  0  0
   32.0056   16.5410   37.6338 O   0  0  0  0  0  0  0  0  0  0  0  0
   38.1443   20.2546   35.6760 O   0  0  0  0  0  0  0  0  0  0  0  0
   37.6740   16.1964   38.1466 O   0  0  0  0  0  0  0  0  0  0  0  0
   35.1813   16.5144   37.3157 O   0  0  0  0  0  0  0  0  0  0  0  0
   34.5730   18.8412   36.3051 C   0  0  0  0  0  0  0  0  0  0  0  0
   33.0716   19.3243   36.3183 C   0  0  0  0  0  0  0  0  0  0  0  0
  3  2  1  0
  6  5  1  0
  7  5  1  0
  9  1  1  0
  9  8  1  0
 10  3  1  0
 11  8  1  0
 12  2  1  0
 13  5  1  0
 14  8  1  0
 15  1  1  0
 16  1  1  0
 16  6  1  0
 17  2  1  0
 17  3  1  0
 17  4  1  0
 17 16  1  0
M  END
>  <ID>  (1) 
conformer_0

$$$$
