
     RDKit          3D

 20 21  0  0  0  0  0  0  0  0999 V2000
   34.8367   18.8290   36.3676 C   0  0  0  0  0  0  0  0  0  0  0  0
   33.3822   19.4256   36.3810 C   0  0  0  0  0  0  0  0  0  0  0  0
   31.7418   18.1458   37.3487 C   0  0  0  0  0  0  0  0  0  0  0  0
   37.8020   19.1313   35.9383 P   0  0  0  0  0  0  0  0  0  0  0  0
   36.4048   15.6381   38.0107 P   0  0  0  0  0  0  0  0  0  0  0  0
   36.4779   18.9375   36.4582 O   0  0  0  0  0  0  0  0  0  0  0  0
   33.9821   20.3524   35.4946 O   0  0  0  0  0  0  0  0  0  0  0  0
   36.8274   14.7979   36.9949 O   0  0  0  0  0  0  0  0  0  0  0  0
   35.3506   15.0614   39.0268 O   0  0  0  0  0  0  0  0  0  0  0  0
   31.7827   18.9662   35.0124 O   0  0  0  0  0  0  0  0  0  0  0  0
   38.7436   18.1772   37.0113 O   0  0  0  0  0  0  0  0  0  0  0  0
   32.4170   16.3655   38.3552 O   0  0  0  0  0  0  0  0  0  0  0  0
   38.3022   20.3728   36.0572 O   0  0  0  0  0  0  0  0  0  0  0  0
   37.7677   19.1105   34.5766 O   0  0  0  0  0  0  0  0  0  0  0  0
   32.3776   18.2456   35.9667 C   0  0  0  0  0  0  0  0  0  0  0  0
   35.4139   16.6149   37.3348 O   0  0  0  0  0  0  0  0  0  0  0  0
   37.2205   16.3277   38.8461 O   0  0  0  0  0  0  0  0  0  0  0  0
   30.8032   17.5126   37.0680 O   0  0  0  0  0  0  0  0  0  0  0  0
   33.1693   16.9994   37.2081 C   0  0  0  0  0  0  0  0  0  0  0  0
   34.5195   17.1680   37.1760 C   0  0  0  0  0  0  0  0  0  0  0  0
  2  1  1  0
  6  1  1  0
  7  2  1  0
  8  5  1  0
  9  5  1  0
 11  4  1  0
 13  4  1  0
 14  1  1  0
 14  4  1  0
 15  2  1  0
 15  3  1  0
 15 10  1  0
 17  5  1  0
 18  3  1  0
 19  3  1  0
 19 12  1  0
 19 15  1  0
 20  1  1  0
 20  8  1  0
 20 16  1  0
 20 19  1  0
M  END
>  <ID>  (1) 
conformer_0

$$$$
