
     RDKit          3D

 18 17  0  0  0  0  0  0  0  0999 V2000
   34.1478   17.3117   37.3491 C   0  0  0  0  0  0  0  0  0  0  0  0
   32.5855   17.4092   37.0760 C   0  0  0  0  0  0  0  0  0  0  0  0
   33.7335   20.4147   35.6649 O   0  0  0  0  0  0  0  0  0  0  0  0
   37.5630   19.3134   35.9257 P   0  0  0  0  0  0  0  0  0  0  0  0
   34.2502   18.8380   36.3866 C   0  0  0  0  0  0  0  0  0  0  0  0
   38.2077   20.5444   35.7746 O   0  0  0  0  0  0  0  0  0  0  0  0
   36.5464   14.3661   37.4240 O   0  0  0  0  0  0  0  0  0  0  0  0
   36.3461   19.2320   36.7637 O   0  0  0  0  0  0  0  0  0  0  0  0
   36.3658   15.5926   38.0516 P   0  0  0  0  0  0  0  0  0  0  0  0
   37.5965   16.5105   38.4317 O   0  0  0  0  0  0  0  0  0  0  0  0
   32.5352   17.8020   34.8121 O   0  0  0  0  0  0  0  0  0  0  0  0
   31.0635   17.3183   37.6180 O   0  0  0  0  0  0  0  0  0  0  0  0
   35.5762   15.3500   39.1666 O   0  0  0  0  0  0  0  0  0  0  0  0
   38.7794   18.3797   36.5972 O   0  0  0  0  0  0  0  0  0  0  0  0
   36.9237   18.7588   34.7127 O   0  0  0  0  0  0  0  0  0  0  0  0
   35.3533   16.3700   37.2674 O   0  0  0  0  0  0  0  0  0  0  0  0
   32.4814   18.4351   36.2341 C   0  0  0  0  0  0  0  0  0  0  0  0
   32.7920   16.0835   38.6756 O   0  0  0  0  0  0  0  0  0  0  0  0
  2  1  1  0
  5  1  1  0
  5  3  1  0
  6  4  1  0
  7  1  1  0
  8  5  1  0
  9  7  1  0
 10  9  1  0
 12  2  1  0
 13  9  1  0
 14  4  1  0
 15  4  1  0
 15  5  1  0
 16  1  1  0
 17  2  1  0
 17 11  1  0
 18  2  1  0
M  END
>  <ID>  (1) 
conformer_0

$$$$
