
     RDKit          3D

 19 18  0  0  0  0  0  0  0  0999 V2000
   34.3655   17.0141   37.1270 C   0  0  0  0  0  0  0  0  0  0  0  0
   32.2186   18.3366   36.3477 C   0  0  0  0  0  0  0  0  0  0  0  0
   32.4065   17.4811   37.0601 C   0  0  0  0  0  0  0  0  0  0  0  0
   37.5663   19.4720   35.7707 P   0  0  0  0  0  0  0  0  0  0  0  0
   33.7763   20.4586   35.8503 O   0  0  0  0  0  0  0  0  0  0  0  0
   36.5403   15.6624   38.0905 P   0  0  0  0  0  0  0  0  0  0  0  0
   35.5922   14.9438   39.0211 O   0  0  0  0  0  0  0  0  0  0  0  0
   36.5359   19.2999   36.7350 O   0  0  0  0  0  0  0  0  0  0  0  0
   38.0959   20.6718   35.7385 O   0  0  0  0  0  0  0  0  0  0  0  0
   36.7718   14.7622   37.0893 O   0  0  0  0  0  0  0  0  0  0  0  0
   31.5244   18.5791   35.0273 O   0  0  0  0  0  0  0  0  0  0  0  0
   37.6927   16.3180   38.7534 O   0  0  0  0  0  0  0  0  0  0  0  0
   37.3814   18.7630   34.5965 O   0  0  0  0  0  0  0  0  0  0  0  0
   32.8401   16.0475   38.1888 O   0  0  0  0  0  0  0  0  0  0  0  0
   34.8431   18.2846   36.6647 C   0  0  0  0  0  0  0  0  0  0  0  0
   38.7978   18.5697   36.3115 O   0  0  0  0  0  0  0  0  0  0  0  0
   35.7298   16.7204   37.3026 O   0  0  0  0  0  0  0  0  0  0  0  0
   30.9885   16.8332   36.8061 O   0  0  0  0  0  0  0  0  0  0  0  0
   33.5507   19.2689   36.3724 C   0  0  0  0  0  0  0  0  0  0  0  0
  3  2  1  0
  7  6  1  0
  9  4  1  0
 10  1  1  0
 10  6  1  0
 11  2  1  0
 12  6  1  0
 13  4  1  0
 14  3  1  0
 15  1  1  0
 15  8  1  0
 15 13  1  0
 16  4  1  0
 17  1  1  0
 18  3  1  0
 19  2  1  0
 19  5  1  0
 19 15  1  0
M  END
>  <ID>  (1) 
conformer_0

$$$$
