
     RDKit          3D

 17 16  0  0  0  0  0  0  0  0999 V2000
   32.3100   17.6514   36.9564 C   0  0  0  0  0  0  0  0  0  0  0  0
   32.4521   18.6451   36.3568 C   0  0  0  0  0  0  0  0  0  0  0  0
   33.6380   20.6683   35.8997 O   0  0  0  0  0  0  0  0  0  0  0  0
   38.1388   20.4015   35.9840 O   0  0  0  0  0  0  0  0  0  0  0  0
   37.6377   19.1682   35.9095 P   0  0  0  0  0  0  0  0  0  0  0  0
   36.1459   15.5234   38.9991 O   0  0  0  0  0  0  0  0  0  0  0  0
   36.2858   18.9931   36.4269 O   0  0  0  0  0  0  0  0  0  0  0  0
   36.4487   15.6901   37.8507 P   0  0  0  0  0  0  0  0  0  0  0  0
   32.3312   18.1627   34.8896 O   0  0  0  0  0  0  0  0  0  0  0  0
   34.4877   17.8368   36.9702 C   0  0  0  0  0  0  0  0  0  0  0  0
   38.5147   18.0146   37.0316 O   0  0  0  0  0  0  0  0  0  0  0  0
   31.1633   17.0869   37.4483 O   0  0  0  0  0  0  0  0  0  0  0  0
   37.1071   14.9149   36.9240 O   0  0  0  0  0  0  0  0  0  0  0  0
   37.2862   18.8311   34.5621 O   0  0  0  0  0  0  0  0  0  0  0  0
   34.2174   19.2030   36.3818 C   0  0  0  0  0  0  0  0  0  0  0  0
   35.3645   16.8758   37.3072 O   0  0  0  0  0  0  0  0  0  0  0  0
   35.0230   14.3620   37.3080 O   0  0  0  0  0  0  0  0  0  0  0  0
  2  1  1  0
  5  4  1  0
  8  6  1  0
  9  2  1  0
 10  1  1  0
 11  5  1  0
 12  1  1  0
 13  8  1  0
 14  5  1  0
 15  3  1  0
 15  7  1  0
 15 10  1  0
 15 14  1  0
 16  8  1  0
 16 10  1  0
 17 13  1  0
M  END
>  <ID>  (1) 
conformer_0

$$$$
