
     RDKit          3D

 17 16  0  0  0  0  0  0  0  0999 V2000
   34.4562   17.4633   37.0567 C   0  0  0  0  0  0  0  0  0  0  0  0
   32.7223   18.6150   36.3998 C   0  0  0  0  0  0  0  0  0  0  0  0
   32.4974   17.5527   37.1916 C   0  0  0  0  0  0  0  0  0  0  0  0
   33.6598   20.4310   35.6870 O   0  0  0  0  0  0  0  0  0  0  0  0
   37.5875   19.3785   35.6535 P   0  0  0  0  0  0  0  0  0  0  0  0
   38.0277   20.5566   35.9557 O   0  0  0  0  0  0  0  0  0  0  0  0
   35.9881   15.3959   38.2846 P   0  0  0  0  0  0  0  0  0  0  0  0
   36.0893   18.9915   36.1755 O   0  0  0  0  0  0  0  0  0  0  0  0
   36.3558   14.4748   37.2777 O   0  0  0  0  0  0  0  0  0  0  0  0
   31.8981   18.3286   35.0629 O   0  0  0  0  0  0  0  0  0  0  0  0
   34.8573   15.0419   39.1675 O   0  0  0  0  0  0  0  0  0  0  0  0
   37.1998   16.0385   38.8703 O   0  0  0  0  0  0  0  0  0  0  0  0
   38.3997   18.3958   36.8309 O   0  0  0  0  0  0  0  0  0  0  0  0
   37.4432   18.7997   34.3928 O   0  0  0  0  0  0  0  0  0  0  0  0
   31.7123   16.8280   37.9369 O   0  0  0  0  0  0  0  0  0  0  0  0
   34.3812   18.8915   36.4025 C   0  0  0  0  0  0  0  0  0  0  0  0
   35.3042   16.4700   37.4721 O   0  0  0  0  0  0  0  0  0  0  0  0
  3  1  1  0
  3  2  1  0
  6  5  1  0
  9  1  1  0
  9  7  1  0
 10  2  1  0
 11  7  1  0
 12  7  1  0
 13  5  1  0
 14  5  1  0
 15  3  1  0
 16  1  1  0
 16  4  1  0
 16  8  1  0
 16 14  1  0
 17  1  1  0
M  END
>  <ID>  (1) 
conformer_0

$$$$
