
     RDKit          3D

 21 21  0  0  0  0  0  0  0  0999 V2000
   34.7538   17.0231   37.5968 C   0  0  0  0  0  0  0  0  0  0  0  0
   33.8937   19.4177   36.4199 C   0  0  0  0  0  0  0  0  0  0  0  0
   33.2756   16.9848   36.7293 C   0  0  0  0  0  0  0  0  0  0  0  0
   37.5879   19.3234   35.7630 P   0  0  0  0  0  0  0  0  0  0  0  0
   33.8328   20.4728   35.5691 O   0  0  0  0  0  0  0  0  0  0  0  0
   36.3887   14.2038   37.5693 O   0  0  0  0  0  0  0  0  0  0  0  0
   36.4538   15.5027   38.2525 P   0  0  0  0  0  0  0  0  0  0  0  0
   36.5247   19.5289   36.6916 O   0  0  0  0  0  0  0  0  0  0  0  0
   31.7991   18.8986   34.9005 O   0  0  0  0  0  0  0  0  0  0  0  0
   35.7825   15.1206   39.6915 O   0  0  0  0  0  0  0  0  0  0  0  0
   38.3275   17.9320   36.6480 O   0  0  0  0  0  0  0  0  0  0  0  0
   31.0556   16.7697   37.1408 O   0  0  0  0  0  0  0  0  0  0  0  0
   37.4705   16.1289   38.7173 O   0  0  0  0  0  0  0  0  0  0  0  0
   34.9537   18.4361   36.2800 C   0  0  0  0  0  0  0  0  0  0  0  0
   33.6640   16.1723   38.6720 O   0  0  0  0  0  0  0  0  0  0  0  0
   36.6465   18.8807   34.8394 O   0  0  0  0  0  0  0  0  0  0  0  0
   32.7494   16.9417   34.8661 O   0  0  0  0  0  0  0  0  0  0  0  0
   38.4620   19.6915   35.5337 O   0  0  0  0  0  0  0  0  0  0  0  0
   35.6772   16.1189   37.2946 O   0  0  0  0  0  0  0  0  0  0  0  0
   31.9423   17.7395   36.9526 C   0  0  0  0  0  0  0  0  0  0  0  0
   32.5620   18.6421   35.9795 C   0  0  0  0  0  0  0  0  0  0  0  0
  3  1  1  0
  5  2  1  0
  6  1  1  0
 10  7  1  0
 11  4  1  0
 13  7  1  0
 14  2  1  0
 14  8  1  0
 15  1  1  0
 16  4  1  0
 16 14  1  0
 17  3  1  0
 18  4  1  0
 19  1  1  0
 19  7  1  0
 20  3  1  0
 20 12  1  0
 21  2  1  0
 21  3  1  0
 21  9  1  0
 21 20  1  0
M  END
>  <ID>  (1) 
conformer_0

$$$$
