
     RDKit          3D

 18 18  0  0  0  0  0  0  0  0999 V2000
   33.0742   18.9359   36.3135 C   0  0  0  0  0  0  0  0  0  0  0  0
   32.4836   17.7971   36.7550 C   0  0  0  0  0  0  0  0  0  0  0  0
   37.4271   19.3072   35.8117 P   0  0  0  0  0  0  0  0  0  0  0  0
   38.1222   20.4093   35.8999 O   0  0  0  0  0  0  0  0  0  0  0  0
   33.6997   20.5187   35.5959 O   0  0  0  0  0  0  0  0  0  0  0  0
   34.1145   17.3165   37.2673 C   0  0  0  0  0  0  0  0  0  0  0  0
   36.7952   13.9768   37.5747 O   0  0  0  0  0  1  0  0  0  0  0  0
   36.4061   15.3240   38.2039 P   0  0  0  0  0  4  0  0  0  0  0  0
   35.8105   19.0679   36.6180 O   0  0  0  0  0  0  0  0  0  0  0  0
   35.3843   15.0684   39.1346 O   0  0  0  0  0  0  0  0  0  0  0  0
   31.1157   17.1426   37.1683 O   0  0  0  0  0  0  0  0  0  0  0  0
   37.0115   18.7591   34.6105 O   0  0  0  0  0  0  0  0  0  0  0  0
   32.3629   17.7802   34.9324 O   0  0  0  0  0  0  0  0  0  0  0  0
   38.1740   18.3437   36.7641 O   0  0  0  0  0  0  0  0  0  0  0  0
   37.3029   16.1602   38.6525 O   0  0  0  0  0  0  0  0  0  0  0  0
   34.6074   18.8458   36.1979 C   0  0  0  0  0  0  0  0  0  0  0  0
   35.7355   16.0059   37.1881 O   0  0  0  0  0  0  0  0  0  0  0  0
   33.0558   16.2349   38.1377 O   0  0  0  0  0  0  0  0  0  0  0  0
  2  1  1  0
  4  3  1  0
  5  1  1  0
  6  2  1  0
  8  7  1  0
 10  8  1  0
 11  2  1  0
 12  3  1  0
 13  2  1  0
 14  3  1  0
 15  8  1  0
 16  1  1  0
 16  6  1  0
 16  9  1  0
 16 12  1  0
 17  6  1  0
 17  8  1  0
 18  6  1  0
M  RAD  2   7   2   8   2
M  END
>  <ID>  (1) 
conformer_0

$$$$
