
     RDKit          3D

 19 19  0  0  0  0  0  0  0  0999 V2000
   34.4525   17.3736   37.3063 C   0  0  0  0  0  0  0  0  0  0  0  0
   33.3124   19.2665   36.4599 C   0  0  0  0  0  0  0  0  0  0  0  0
   31.9938   18.0604   36.3157 C   0  0  0  0  0  0  0  0  0  0  0  0
   37.3924   19.4049   35.6552 P   0  0  0  0  0  0  0  0  0  0  0  0
   37.8456   20.4939   35.9010 O   0  0  0  0  0  0  0  0  0  0  0  0
   33.8005   20.3460   35.6539 O   0  0  0  0  0  0  0  0  0  0  0  0
   36.8105   15.7116   38.2180 P   0  0  0  0  0  0  0  0  0  0  0  0
   36.0149   19.0425   36.2962 O   0  0  0  0  0  0  0  0  0  0  0  0
   35.9652   15.4091   39.3493 O   0  0  0  0  0  0  0  0  0  0  0  0
   32.1018   18.4230   34.8874 O   0  0  0  0  0  0  0  0  0  0  0  0
   36.9682   14.6094   37.4517 O   0  0  0  0  0  0  0  0  0  0  0  0
   37.9951   16.5054   38.4991 O   0  0  0  0  0  0  0  0  0  0  0  0
   30.9011   16.9304   36.9604 O   0  0  0  0  0  0  0  0  0  0  0  0
   32.7489   16.6633   38.4467 O   0  0  0  0  0  0  0  0  0  0  0  0
   34.8156   18.7867   36.5743 C   0  0  0  0  0  0  0  0  0  0  0  0
   37.2141   18.4818   34.5809 O   0  0  0  0  0  0  0  0  0  0  0  0
   38.4755   18.4478   36.6681 O   0  0  0  0  0  0  0  0  0  0  0  0
   35.5366   16.5651   37.3181 O   0  0  0  0  0  0  0  0  0  0  0  0
   32.6130   17.5967   37.1525 C   0  0  0  0  0  0  0  0  0  0  0  0
  3  2  1  0
  5  4  1  0
  6  2  1  0
  9  7  1  0
 10  3  1  0
 11  1  1  0
 11  7  1  0
 12  7  1  0
 13  3  1  0
 15  1  1  0
 15  2  1  0
 15  8  1  0
 16  4  1  0
 16 15  1  0
 17  4  1  0
 18  1  1  0
 19  1  1  0
 19  3  1  0
 19 14  1  0
M  END
>  <ID>  (1) 
conformer_0

$$$$
