
     RDKit          3D

 21 21  0  0  0  0  0  0  0  0999 V2000
   33.4471   19.3399   36.3604 C   0  0  0  0  0  0  0  0  0  0  0  0
   32.2606   18.2736   36.2970 C   0  0  0  0  0  0  0  0  0  0  0  0
   33.5678   20.6158   35.8549 O   0  0  0  0  0  0  0  0  0  0  0  0
   37.4896   19.3953   35.8544 P   0  0  0  0  0  4  0  0  0  0  0  0
   37.9505   20.5111   36.0462 O   0  0  0  0  0  0  0  0  0  0  0  0
   36.8504   15.8945   37.7565 P   0  0  0  0  0  0  0  0  0  0  0  0
   35.9332   19.3337   36.3011 O   0  0  0  0  0  0  0  0  0  0  0  0
   35.5706   15.3728   39.0522 O   0  0  0  0  0  0  0  0  0  0  0  0
   34.8927   18.4517   36.4240 C   0  0  0  0  0  0  0  0  0  0  0  0
   31.6012   19.0549   35.0249 O   0  0  0  0  0  0  0  0  0  0  0  0
   37.2228   14.7694   37.2876 O   0  0  0  0  0  0  0  0  0  0  0  0
   32.6076   16.2715   38.3516 O   0  0  0  0  0  0  0  0  0  0  0  0
   38.4355   18.1613   36.9533 O   0  0  0  0  0  0  0  0  0  0  0  0
   34.9117   16.1908   37.4309 O   0  0  0  0  0  0  0  0  0  0  0  0
   30.8104   17.6388   37.2651 O   0  0  0  0  0  0  0  0  0  0  0  0
   32.4206   17.6196   37.4839 C   0  0  0  0  0  0  0  0  0  0  0  0
   37.2447   19.0981   34.4957 O   0  0  0  0  0  0  0  0  0  0  0  0
   32.9284   17.1668   35.0024 O   0  0  0  0  0  0  0  0  0  0  0  0
   37.4051   16.7434   38.6904 O   0  0  0  0  0  0  0  0  0  0  0  0
   34.1673   17.2731   37.1287 C   0  0  0  0  0  0  0  0  0  0  0  0
   36.7731   17.0721   36.4809 O   0  0  0  0  0  1  0  0  0  0  0  0
  2  1  1  0
  3  1  1  0
  5  4  1  0
  8  6  1  0
  9  1  1  0
  9  7  1  0
 10  2  1  0
 11  6  1  0
 13  4  1  0
 16  2  1  0
 16 12  1  0
 16 15  1  0
 17  4  1  0
 17  9  1  0
 18  2  1  0
 19  6  1  0
 20  9  1  0
 20 11  1  0
 20 14  1  0
 20 16  1  0
 21  4  1  0
M  RAD  2   4   2  21   2
M  END
>  <ID>  (1) 
conformer_0

$$$$
