
     RDKit          3D

 19 18  0  0  0  0  0  0  0  0999 V2000
   33.2789   17.0813   37.4741 C   0  0  0  0  0  0  0  0  0  0  0  0
   34.5686   17.5652   36.8049 C   0  0  0  0  0  0  0  0  0  0  0  0
   34.3587   19.4623   36.4311 C   0  0  0  0  0  0  0  0  0  0  0  0
   37.9530   20.5791   35.7584 O   0  0  0  0  0  0  0  0  0  0  0  0
   37.4364   19.2827   36.0656 P   0  0  0  0  0  0  0  0  0  0  0  0
   36.0232   19.3729   36.5761 O   0  0  0  0  0  0  0  0  0  0  0  0
   36.6664   14.4314   37.2955 O   0  0  0  0  0  0  0  0  0  0  0  0
   35.9698   15.7316   39.0438 O   0  0  0  0  0  0  0  0  0  0  0  0
   33.8027   20.5342   35.6291 O   0  0  0  0  0  0  0  0  0  0  0  0
   36.8360   15.8949   37.7325 P   0  0  0  0  0  0  0  0  0  0  0  0
   31.1869   16.5862   37.1916 O   0  0  0  0  0  0  0  0  0  0  0  0
   33.3083   16.0600   38.5834 O   0  0  0  0  0  0  0  0  0  0  0  0
   37.7564   16.6684   38.1888 O   0  0  0  0  0  0  0  0  0  0  0  0
   32.3842   17.7053   35.0440 O   0  0  0  0  0  0  0  0  0  0  0  0
   37.1359   18.5263   34.9096 O   0  0  0  0  0  0  0  0  0  0  0  0
   32.9125   18.9655   36.1247 C   0  0  0  0  0  0  0  0  0  0  0  0
   36.0249   16.7991   36.7737 O   0  0  0  0  0  0  0  0  0  0  0  0
   32.0523   17.8378   36.8989 C   0  0  0  0  0  0  0  0  0  0  0  0
   38.5225   18.5595   36.8521 O   0  0  0  0  0  0  0  0  0  0  0  0
  2  1  1  0
  5  4  1  0
  6  3  1  0
  7  2  1  0
  9  3  1  0
 10  7  1  0
 10  8  1  0
 12  1  1  0
 13 10  1  0
 15  3  1  0
 15  5  1  0
 16  3  1  0
 16 14  1  0
 17  2  1  0
 18  1  1  0
 18 11  1  0
 18 16  1  0
 19  5  1  0
M  END
>  <ID>  (1) 
conformer_0

$$$$
