
     RDKit          3D

 19 19  0  0  0  0  0  0  0  0999 V2000
   33.3865   17.0759   37.2994 C   0  0  0  0  0  0  0  0  0  0  0  0
   32.4220   17.8236   36.4709 C   0  0  0  0  0  0  0  0  0  0  0  0
   33.7310   20.5157   35.6885 O   0  0  0  0  0  0  0  0  0  0  0  0
   37.9606   20.5126   35.9771 O   0  0  0  0  0  0  0  0  0  0  0  0
   37.3877   19.1455   35.8851 P   0  0  0  0  0  0  0  0  0  0  0  0
   32.9786   19.1076   36.3816 C   0  0  0  0  0  0  0  0  0  0  0  0
   35.9311   15.3915   38.1417 P   0  0  0  0  0  0  0  0  0  0  0  0
   32.1054   18.4180   34.9586 O   0  0  0  0  0  0  0  0  0  0  0  0
   36.0429   19.0247   36.3208 O   0  0  0  0  0  0  0  0  0  0  0  0
   35.9670   14.1846   37.6616 O   0  0  0  0  0  0  0  0  0  0  0  0
   35.4435   15.2668   39.4934 O   0  0  0  0  0  0  0  0  0  0  0  0
   31.4324   16.8850   37.3359 O   0  0  0  0  0  0  0  0  0  0  0  0
   38.3104   18.4185   37.0714 O   0  0  0  0  0  0  0  0  0  0  0  0
   37.0906   16.5443   38.6673 O   0  0  0  0  0  0  0  0  0  0  0  0
   37.3312   18.5390   34.7191 O   0  0  0  0  0  0  0  0  0  0  0  0
   34.8535   17.4836   37.0028 C   0  0  0  0  0  0  0  0  0  0  0  0
   35.7305   16.3763   37.1988 O   0  0  0  0  0  0  0  0  0  0  0  0
   34.5531   19.0885   36.4170 C   0  0  0  0  0  0  0  0  0  0  0  0
   33.2534   16.0034   38.5962 O   0  0  0  0  0  0  0  0  0  0  0  0
  2  1  1  0
  5  4  1  0
  6  2  1  0
  6  3  1  0
  8  2  1  0
 10  7  1  0
 11  7  1  0
 12  2  1  0
 13  5  1  0
 14  7  1  0
 15  5  1  0
 16  1  1  0
 16 10  1  0
 17 16  1  0
 18  6  1  0
 18  9  1  0
 18 15  1  0
 18 16  1  0
 19  1  1  0
M  END
>  <ID>  (1) 
conformer_0

$$$$
