
     RDKit          3D

 20 20  0  0  0  0  0  0  0  0999 V2000
   34.5497   19.0855   36.6865 C   0  0  0  0  0  0  0  0  0  0  0  0
   31.9138   17.9107   36.1167 C   0  0  0  0  0  0  0  0  0  0  0  0
   31.8102   17.6528   37.3988 C   0  0  0  0  0  0  0  0  0  0  0  0
   37.4013   19.4049   35.8382 P   0  0  0  0  0  0  0  0  0  0  0  0
   37.8951   20.6886   35.5561 O   0  0  0  0  0  0  0  0  0  0  0  0
   33.6892   20.2552   35.6333 O   0  0  0  0  0  0  0  0  0  0  0  0
   36.1140   19.1254   36.6471 O   0  0  0  0  0  0  0  0  0  0  0  0
   36.7819   15.8354   37.9846 P   0  0  0  0  0  0  0  0  0  0  0  0
   35.6762   15.0607   39.0552 O   0  0  0  0  0  0  0  0  0  0  0  0
   36.0016   16.6984   37.4855 O   0  0  0  0  0  0  0  0  0  0  0  0
   31.9211   18.5737   34.9722 O   0  0  0  0  0  0  0  0  0  0  0  0
   32.9933   19.2680   36.5406 C   0  0  0  0  0  0  0  0  0  0  0  0
   37.9275   16.5999   38.6972 O   0  0  0  0  0  0  0  0  0  0  0  0
   32.7991   16.2354   38.4549 O   0  0  0  0  0  0  0  0  0  0  0  0
   36.9188   14.5875   37.2990 O   0  0  0  0  0  0  0  0  0  0  0  0
   30.5930   17.3957   37.1370 O   0  0  0  0  0  0  0  0  0  0  0  0
   38.5483   18.8791   36.7633 O   0  0  0  0  0  0  0  0  0  0  0  0
   36.8562   18.5869   34.7878 O   0  0  0  0  0  0  0  0  0  0  0  0
   33.4160   17.0168   37.2226 C   0  0  0  0  0  0  0  0  0  0  0  0
   34.8685   17.5222   37.4493 C   0  0  0  0  0  0  0  0  0  0  0  0
  3  2  1  0
  5  4  1  0
  7  1  1  0
  9  8  1  0
 10  8  1  0
 11  2  1  0
 12  1  1  0
 12  2  1  0
 12  6  1  0
 13  8  1  0
 16  3  1  0
 17  4  1  0
 18  1  1  0
 18  4  1  0
 19  3  1  0
 19 14  1  0
 20  1  1  0
 20 10  1  0
 20 15  1  0
 20 19  1  0
M  END
>  <ID>  (1) 
conformer_0

$$$$
