
     RDKit          3D

 19 18  0  0  0  0  0  0  0  0999 V2000
   34.6146   17.2130   37.4171 C   0  0  0  0  0  0  0  0  0  0  0  0
   33.1701   19.2764   36.0708 C   0  0  0  0  0  0  0  0  0  0  0  0
   34.4856   19.1447   36.2586 C   0  0  0  0  0  0  0  0  0  0  0  0
   38.2210   18.1341   37.0924 O   0  0  0  0  0  0  0  0  0  0  0  0
   33.8006   20.7909   35.6658 O   0  0  0  0  0  0  0  0  0  0  0  0
   36.8397   15.8085   37.9970 P   0  0  0  0  0  0  0  0  0  0  0  0
   36.7489   14.5202   37.4199 O   0  0  0  0  0  0  0  0  0  0  0  0
   37.1960   18.8849   35.9331 P   0  0  0  0  0  0  0  0  0  0  0  0
   35.7103   19.1536   36.3967 O   0  0  0  0  0  0  0  0  0  0  0  0
   35.9930   15.3260   39.4249 O   0  0  0  0  0  0  0  0  0  0  0  0
   37.7748   20.1078   35.8585 O   0  0  0  0  0  0  0  0  0  0  0  0
   33.3758   16.2567   38.5348 O   0  0  0  0  0  0  0  0  0  0  0  0
   31.8456   17.9757   35.0456 O   0  0  0  0  0  0  0  0  0  0  0  0
   33.2009   17.3035   37.2193 C   0  0  0  0  0  0  0  0  0  0  0  0
   31.3828   16.8300   37.1458 O   0  0  0  0  0  0  0  0  0  0  0  0
   36.8943   18.3591   34.8208 O   0  0  0  0  0  0  0  0  0  0  0  0
   36.4130   16.6089   36.8122 O   0  0  0  0  0  0  0  0  0  0  0  0
   37.6792   16.5111   38.6951 O   0  0  0  0  0  0  0  0  0  0  0  0
   32.3089   18.0230   36.2456 C   0  0  0  0  0  0  0  0  0  0  0  0
  3  2  1  0
  5  2  1  0
  7  1  1  0
  7  6  1  0
  8  4  1  0
  9  3  2  0
 10  6  1  0
 11  8  1  0
 14  1  1  0
 14 12  1  0
 16  3  1  0
 16  8  1  0
 17  1  1  0
 18  6  1  0
 19  2  1  0
 19 13  1  0
 19 14  1  0
 19 15  1  0
M  END
>  <ID>  (1) 
conformer_0

$$$$
