
     RDKit          3D

 20 19  0  0  0  0  0  0  0  0999 V2000
   34.0234   17.4204   36.7660 C   0  0  0  0  0  0  0  0  0  0  0  0
   33.6468   19.6755   36.4574 C   0  0  0  0  0  0  0  0  0  0  0  0
   38.0153   20.5441   35.9854 O   0  0  0  0  0  0  0  0  0  0  0  0
   33.6764   20.6459   35.7086 O   0  0  0  0  0  0  0  0  0  0  0  0
   36.5004   15.8112   37.6335 P   0  0  0  0  0  4  0  0  0  0  0  0
   37.4176   19.0145   36.1162 P   0  0  0  0  0  0  0  0  0  0  0  0
   35.4552   15.4277   38.9438 O   0  0  0  0  0  0  0  0  0  0  0  0
   36.1086   19.3525   36.6797 O   0  0  0  0  0  0  0  0  0  0  0  0
   32.3837   18.1094   36.2950 C   0  0  0  0  0  0  0  0  0  0  0  0
   32.5957   17.9983   34.8995 O   0  0  0  0  0  0  0  0  0  0  0  0
   36.5026   14.4921   37.0606 O   0  0  0  0  0  0  0  0  0  0  0  0
   31.2653   16.7548   36.9521 O   0  0  0  0  0  0  0  0  0  0  0  0
   37.4025   16.5771   38.4400 O   0  0  0  0  0  0  0  0  0  0  0  0
   37.0573   18.9170   34.7220 O   0  0  0  0  0  0  0  0  0  0  0  0
   35.2470   16.6916   37.0603 O   0  0  0  0  0  0  0  0  0  0  0  0
   38.5201   18.3462   37.0094 O   0  0  0  0  0  0  0  0  0  0  0  0
   34.7709   18.8571   36.3452 C   0  0  0  0  0  0  0  0  0  0  0  0
   32.7168   16.8018   38.6553 O   0  0  0  0  0  0  0  0  0  0  0  0
   37.2817   16.8391   35.9380 O   0  0  0  0  0  1  0  0  0  0  0  0
   32.3786   17.8125   37.5570 C   0  0  0  0  0  0  0  0  0  0  0  0
  4  2  1  0
  6  3  1  0
  7  5  1  0
  9  1  1  0
 10  9  1  0
 11  1  1  0
 11  5  1  0
 13  5  1  0
 14  6  1  0
 15  1  1  0
 16  6  1  0
 17  1  1  0
 17  2  1  0
 17  8  1  0
 17 14  1  0
 19  5  1  0
 20  9  1  0
 20 12  1  0
 20 18  1  0
M  RAD  2   5   2  19   2
M  END
>  <ID>  (1) 
conformer_0

$$$$
