
     RDKit          3D

 19 18  0  0  0  0  0  0  0  0999 V2000
   34.8112   18.0472   36.3901 C   0  0  0  0  0  0  0  0  0  0  0  0
   34.2152   17.0212   37.2163 C   0  0  0  0  0  0  0  0  0  0  0  0
   37.2770   19.6267   35.7723 P   0  0  0  0  0  0  0  0  0  0  0  0
   33.7699   20.4269   35.6688 O   0  0  0  0  0  0  0  0  0  0  0  0
   36.5736   14.3235   37.5389 O   0  0  0  0  0  0  0  0  0  0  0  0
   36.3979   15.6582   38.0178 P   0  0  0  0  0  0  0  0  0  0  0  0
   37.9397   20.6228   35.9348 O   0  0  0  0  0  0  0  0  0  0  0  0
   33.9305   19.3005   36.3312 C   0  0  0  0  0  0  0  0  0  0  0  0
   35.9572   19.2926   36.4374 O   0  0  0  0  0  0  0  0  0  0  0  0
   37.4086   16.5219   38.5114 O   0  0  0  0  0  0  0  0  0  0  0  0
   32.4335   17.6998   34.9538 O   0  0  0  0  0  0  0  0  0  0  0  0
   31.0602   17.0270   37.3892 O   0  0  0  0  0  0  0  0  0  0  0  0
   38.1942   18.4676   36.9474 O   0  0  0  0  0  0  0  0  0  0  0  0
   37.0156   18.9060   34.5778 O   0  0  0  0  0  0  0  0  0  0  0  0
   33.1479   16.2971   38.5832 O   0  0  0  0  0  0  0  0  0  0  0  0
   35.5618   16.2858   37.1260 O   0  0  0  0  0  0  0  0  0  0  0  0
   32.3663   18.3786   36.3008 C   0  0  0  0  0  0  0  0  0  0  0  0
   32.3141   17.6485   37.0986 C   0  0  0  0  0  0  0  0  0  0  0  0
   35.5512   15.4597   39.2805 O   0  0  0  0  0  0  0  0  0  0  0  0
  2  1  1  0
  5  2  1  0
  7  3  1  0
  8  1  1  0
  8  4  1  0
  9  1  1  0
 10  6  1  0
 13  3  1  0
 14  1  1  0
 14  3  1  0
 15  2  1  0
 16  2  1  0
 16  6  1  0
 17  8  1  0
 17 11  1  0
 18 12  1  0
 18 17  1  0
 19  6  1  0
M  END
>  <ID>  (1) 
conformer_0

$$$$
