
     RDKit          3D

 20 20  0  0  0  0  0  0  0  0999 V2000
   33.4719   16.9886   37.6487 C   0  0  0  0  0  0  0  0  0  0  0  0
   34.7376   17.2172   36.6202 C   0  0  0  0  0  0  0  0  0  0  0  0
   35.0368   18.7445   36.1598 C   0  0  0  0  0  0  0  0  0  0  0  0
   37.5598   19.5515   35.7658 P   0  0  0  0  0  0  0  0  0  0  0  0
   33.6542   20.3878   35.6354 O   0  0  0  0  0  0  0  0  0  0  0  0
   38.0379   20.7309   35.9961 O   0  0  0  0  0  0  0  0  0  0  0  0
   37.2094   19.2272   34.5082 O   0  0  0  0  0  0  0  0  0  0  0  0
   36.0461   15.2440   38.2718 P   0  0  0  0  0  0  0  0  0  0  0  0
   36.3056   13.9792   37.7816 O   0  0  0  0  0  0  0  0  0  0  0  0
   37.1714   16.2600   38.6235 O   0  0  0  0  0  0  0  0  0  0  0  0
   32.1448   18.3249   34.9476 O   0  0  0  0  0  0  0  0  0  0  0  0
   32.8308   16.4422   38.6706 O   0  0  0  0  0  0  0  0  0  0  0  0
   35.1683   16.0924   37.3844 O   0  0  0  0  0  0  0  0  0  0  0  0
   36.0048   19.0768   36.3679 O   0  0  0  0  0  0  0  0  0  0  0  0
   33.3980   19.4106   36.4763 C   0  0  0  0  0  0  0  0  0  0  0  0
   35.2753   15.3254   39.2639 O   0  0  0  0  0  0  0  0  0  0  0  0
   38.3731   18.7859   36.8442 O   0  0  0  0  0  0  0  0  0  0  0  0
   30.9792   17.2787   37.3937 O   0  0  0  0  0  0  0  0  0  0  0  0
   32.7456   17.8525   36.1298 C   0  0  0  0  0  0  0  0  0  0  0  0
   31.8746   18.1510   37.0971 C   0  0  0  0  0  0  0  0  0  0  0  0
  2  1  1  0
  3  2  1  0
  6  4  1  0
  7  3  1  0
  7  4  1  0
  9  2  1  0
  9  8  1  0
 10  8  1  0
 12  1  1  0
 13  2  1  0
 14  3  1  0
 15  3  1  0
 15  5  1  0
 16  8  1  0
 17  4  1  0
 19  1  1  0
 19 11  1  0
 19 15  1  0
 20 18  1  0
 20 19  1  0
M  END
>  <ID>  (1) 
conformer_0

$$$$
