
     RDKit          3D

 18 18  0  0  0  0  0  0  0  0999 V2000
   34.3422   17.1784   36.9452 C   0  0  0  0  0  0  0  0  0  0  0  0
   32.6454   17.6128   37.1324 C   0  0  0  0  0  0  0  0  0  0  0  0
   37.4607   19.3484   35.6904 P   0  0  0  0  0  0  0  0  0  0  0  0
   33.9070   20.4850   35.6859 O   0  0  0  0  0  0  0  0  0  0  0  0
   35.8777   15.3481   38.2928 P   0  0  0  0  0  0  0  0  0  0  0  0
   38.0392   20.5409   35.6670 O   0  0  0  0  0  0  0  0  0  0  0  0
   36.1231   19.2100   36.4071 O   0  0  0  0  0  0  0  0  0  0  0  0
   36.3592   14.0899   37.7903 O   0  0  0  0  0  0  0  0  0  0  0  0
   34.6168   18.6044   36.2493 C   0  0  0  0  0  0  0  0  0  0  0  0
   35.3555   15.3289   39.4712 O   0  0  0  0  0  0  0  0  0  0  0  0
   30.9624   17.7028   37.0263 O   0  0  0  0  0  0  0  0  0  0  0  0
   38.3637   18.3829   36.5996 O   0  0  0  0  0  0  0  0  0  0  0  0
   37.0532   16.4825   38.6819 O   0  0  0  0  0  0  0  0  0  0  0  0
   32.8437   18.8657   36.3934 C   0  0  0  0  0  0  0  0  0  0  0  0
   36.9645   18.6861   34.5573 O   0  0  0  0  0  0  0  0  0  0  0  0
   32.1984   18.1001   35.1278 O   0  0  0  0  0  0  0  0  0  0  0  0
   35.4935   15.9881   37.2520 O   0  0  0  0  0  0  0  0  0  0  0  0
   33.3256   16.2965   38.5300 O   0  0  0  0  0  0  0  0  0  0  0  0
  2  1  1  0
  6  3  1  0
  8  1  1  0
  9  1  1  0
  9  7  1  0
 10  5  1  0
 11  2  1  0
 12  3  1  0
 13  5  1  0
 14  2  1  0
 14  4  1  0
 14  9  1  0
 15  3  1  0
 15  9  1  0
 16 14  1  0
 17  1  1  0
 17  5  1  0
 18  2  1  0
M  END
>  <ID>  (1) 
conformer_0

$$$$
