
     RDKit          3D

 19 18  0  0  0  0  0  0  0  0999 V2000
   32.1888   18.3680   36.2281 C   0  0  0  0  0  0  0  0  0  0  0  0
   33.5068   19.2411   36.1474 C   0  0  0  0  0  0  0  0  0  0  0  0
   37.8376   20.3910   35.9207 O   0  0  0  0  0  0  0  0  0  0  0  0
   34.0149   20.3617   35.7932 O   0  0  0  0  0  0  0  0  0  0  0  0
   37.5228   19.0110   36.1177 P   0  0  0  0  0  0  0  0  0  0  0  0
   32.1041   18.1590   34.8705 O   0  0  0  0  0  0  0  0  0  0  0  0
   34.2834   17.3053   37.4096 C   0  0  0  0  0  0  0  0  0  0  0  0
   36.4322   18.7868   36.7967 O   0  0  0  0  0  0  0  0  0  0  0  0
   35.6236   15.5235   39.2925 O   0  0  0  0  0  0  0  0  0  0  0  0
   36.4094   15.8325   38.1085 P   0  0  0  0  0  0  0  0  0  0  0  0
   36.5318   14.5440   37.3606 O   0  0  0  0  0  0  0  0  0  0  0  0
   31.1803   16.9872   37.2981 O   0  0  0  0  0  0  0  0  0  0  0  0
   38.6579   18.2529   36.7207 O   0  0  0  0  0  0  0  0  0  0  0  0
   37.0886   18.3302   34.7618 O   0  0  0  0  0  0  0  0  0  0  0  0
   37.5196   16.5979   38.7026 O   0  0  0  0  0  0  0  0  0  0  0  0
   32.6453   17.4839   37.1486 C   0  0  0  0  0  0  0  0  0  0  0  0
   33.1535   16.3353   38.5621 O   0  0  0  0  0  0  0  0  0  0  0  0
   35.8397   16.5886   37.2238 O   0  0  0  0  0  0  0  0  0  0  0  0
   34.8384   18.6153   36.5430 C   0  0  0  0  0  0  0  0  0  0  0  0
  2  1  1  0
  4  2  1  0
  5  3  1  0
  6  1  1  0
  8  5  1  0
 10  9  1  0
 11  7  1  0
 13  5  1  0
 15 10  1  0
 16  1  1  0
 16 12  1  0
 17  7  1  0
 18  7  1  0
 18 10  1  0
 19  2  1  0
 19  7  1  0
 19  8  1  0
 19 14  1  0
M  END
>  <ID>  (1) 
conformer_0

$$$$
