
     RDKit          3D

 18 17  0  0  0  0  0  0  0  0999 V2000
   33.1390   17.0753   37.3478 C   0  0  0  0  0  0  0  0  0  0  0  0
   32.0723   17.7458   36.4620 C   0  0  0  0  0  0  0  0  0  0  0  0
   37.2651   19.5198   35.6953 P   0  0  0  0  0  0  0  0  0  0  0  0
   37.8963   20.6652   35.8353 O   0  0  0  0  0  0  0  0  0  0  0  0
   36.3005   15.5315   38.0592 P   0  0  0  0  0  0  0  0  0  0  0  0
   35.6987   19.1978   36.5810 O   0  0  0  0  0  0  0  0  0  0  0  0
   35.6575   14.8922   39.0700 O   0  0  0  0  0  0  0  0  0  0  0  0
   32.0461   18.1661   34.8919 O   0  0  0  0  0  0  0  0  0  0  0  0
   32.8416   18.8749   36.2989 C   0  0  0  0  0  0  0  0  0  0  0  0
   36.1852   14.7585   36.8693 O   0  0  0  0  0  0  0  0  0  0  0  0
   31.4775   16.7017   37.4893 O   0  0  0  0  0  0  0  0  0  0  0  0
   36.8752   18.7086   34.6405 O   0  0  0  0  0  0  0  0  0  0  0  0
   37.5470   16.2365   38.3148 O   0  0  0  0  0  0  0  0  0  0  0  0
   33.9233   20.1182   35.4544 O   0  0  0  0  0  0  0  0  0  0  0  0
   38.2698   18.6545   36.7040 O   0  0  0  0  0  0  0  0  0  0  0  0
   34.5622   17.3043   36.9662 C   0  0  0  0  0  0  0  0  0  0  0  0
   35.2535   16.6787   37.4196 O   0  0  0  0  0  0  0  0  0  0  0  0
   34.4854   19.0186   36.3573 C   0  0  0  0  0  0  0  0  0  0  0  0
  2  1  1  0
  4  3  1  0
  7  5  1  0
  8  2  1  0
  9  2  1  0
 10  5  1  0
 11  2  1  0
 12  3  1  0
 13  5  1  0
 15  3  1  0
 16  1  1  0
 16 10  1  0
 17 16  1  0
 18  6  1  0
 18  9  1  0
 18 12  1  0
 18 14  1  0
M  END
>  <ID>  (1) 
conformer_0

$$$$
