
     RDKit          3D

 19 19  0  0  0  0  0  0  0  0999 V2000
   32.4758   17.7280   37.2512 C   0  0  0  0  0  0  0  0  0  0  0  0
   32.3984   18.3676   36.2284 C   0  0  0  0  0  0  0  0  0  0  0  0
   38.2253   20.3684   35.7734 O   0  0  0  0  0  0  0  0  0  0  0  0
   33.7310   19.5169   36.2050 C   0  0  0  0  0  0  0  0  0  0  0  0
   37.6634   19.1005   36.0387 P   0  0  0  0  0  0  0  0  0  0  0  0
   33.7653   20.5198   35.5186 O   0  0  0  0  0  0  0  0  0  0  0  0
   35.6138   15.2480   39.1316 O   0  0  0  0  0  0  0  0  0  0  0  0
   36.8360   15.6257   38.1453 P   0  0  0  0  0  4  0  0  0  0  0  0
   31.7961   18.4563   34.9066 O   0  0  0  0  0  0  0  0  0  0  0  0
   36.2039   19.1707   36.5938 O   0  0  0  0  0  0  0  0  0  0  0  0
   37.3461   14.4683   37.6479 O   0  0  0  0  0  1  0  0  0  0  0  0
   37.5520   16.5328   38.8574 O   0  0  0  0  0  0  0  0  0  0  0  0
   31.3391   16.8201   36.9091 O   0  0  0  0  0  0  0  0  0  0  0  0
   35.9674   16.5938   37.1715 O   0  0  0  0  0  0  0  0  0  0  0  0
   34.2504   17.0964   37.2713 C   0  0  0  0  0  0  0  0  0  0  0  0
   38.6166   18.2867   37.0412 O   0  0  0  0  0  0  0  0  0  0  0  0
   37.2575   18.3144   34.9313 O   0  0  0  0  0  0  0  0  0  0  0  0
   33.1150   16.3568   38.4551 O   0  0  0  0  0  0  0  0  0  0  0  0
   34.7414   18.2742   36.5089 C   0  0  0  0  0  0  0  0  0  0  0  0
  2  1  1  0
  4  2  1  0
  5  3  1  0
  6  4  1  0
  8  7  1  0
  9  2  1  0
 11  8  1  0
 12  8  1  0
 13  1  1  0
 14  8  1  0
 15  1  1  0
 15 14  1  0
 16  5  1  0
 17  5  1  0
 18 15  1  0
 19  4  1  0
 19 10  1  0
 19 15  1  0
 19 17  1  0
M  RAD  2   8   2  11   2
M  END
>  <ID>  (1) 
conformer_0

$$$$
