
     RDKit          3D

 19 19  0  0  0  0  0  0  0  0999 V2000
   32.0868   17.8706   36.4675 C   0  0  0  0  0  0  0  0  0  0  0  0
   34.5941   17.3774   37.2830 C   0  0  0  0  0  0  0  0  0  0  0  0
   33.0427   19.0891   36.3263 C   0  0  0  0  0  0  0  0  0  0  0  0
   33.6681   20.4870   35.7832 O   0  0  0  0  0  0  0  0  0  0  0  0
   37.9868   20.6010   35.7816 O   0  0  0  0  0  0  0  0  0  0  0  0
   37.6618   19.2169   35.8962 P   0  0  0  0  0  0  0  0  0  0  0  0
   31.9780   18.7512   34.8676 O   0  0  0  0  0  0  0  0  0  0  0  0
   35.8393   15.3505   39.2223 O   0  0  0  0  0  0  0  0  0  0  0  0
   36.5728   18.7600   36.8204 O   0  0  0  0  0  0  0  0  0  0  0  0
   36.6587   15.7320   38.0713 P   0  0  0  0  0  0  0  0  0  0  0  0
   36.6866   14.6463   37.3071 O   0  0  0  0  0  0  0  0  0  0  0  0
   30.8402   16.6722   37.3151 O   0  0  0  0  0  0  0  0  0  0  0  0
   34.5938   18.8937   36.5484 C   0  0  0  0  0  0  0  0  0  0  0  0
   39.0170   18.5840   36.2418 O   0  0  0  0  0  0  0  0  0  0  0  0
   37.9396   16.4479   38.4947 O   0  0  0  0  0  0  0  0  0  0  0  0
   36.8980   18.7141   34.6756 O   0  0  0  0  0  0  0  0  0  0  0  0
   35.4161   16.4934   37.3844 O   0  0  0  0  0  0  0  0  0  0  0  0
   32.7786   17.1326   37.2625 C   0  0  0  0  0  0  0  0  0  0  0  0
   32.5187   16.3011   38.5449 O   0  0  0  0  0  0  0  0  0  0  0  0
  3  1  1  0
  4  3  1  0
  6  5  1  0
  7  1  1  0
  9  6  1  0
 10  8  1  0
 11  2  1  0
 11 10  1  0
 12  1  1  0
 13  2  1  0
 13  3  1  0
 13  9  1  0
 14  6  1  0
 15 10  1  0
 16 13  1  0
 17  2  1  0
 18  1  1  0
 18  2  1  0
 19 18  1  0
M  END
>  <ID>  (1) 
conformer_0

$$$$
