
     RDKit          3D

 19 20  0  0  0  0  0  0  0  0999 V2000
   34.9597   18.0284   36.5334 C   0  0  0  0  0  0  0  0  0  0  0  0
   32.9554   18.1047   36.0637 C   0  0  0  0  0  0  0  0  0  0  0  0
   37.9756   20.3277   36.0402 O   0  0  0  0  0  0  0  0  0  0  0  0
   37.7449   19.1768   36.0672 P   0  0  0  0  0  0  0  0  0  0  0  0
   33.7497   19.3434   36.4267 C   0  0  0  0  0  0  0  0  0  0  0  0
   33.9364   20.2576   35.6638 O   0  0  0  0  0  0  0  0  0  0  0  0
   36.7380   14.5635   37.4732 O   0  0  0  0  0  0  0  0  0  0  0  0
   36.5930   18.6545   36.6909 O   0  0  0  0  0  0  0  0  0  0  0  0
   37.5913   16.6162   38.5970 O   0  0  0  0  0  0  0  0  0  0  0  0
   36.5886   15.8231   38.0683 P   0  0  0  0  0  0  0  0  0  0  0  0
   32.0795   18.7250   34.9162 O   0  0  0  0  0  0  0  0  0  0  0  0
   30.8049   17.2079   37.3384 O   0  0  0  0  0  0  0  0  0  0  0  0
   32.9349   15.9473   38.5484 O   0  0  0  0  0  0  0  0  0  0  0  0
   31.6574   18.3943   36.6172 C   0  0  0  0  0  0  0  0  0  0  0  0
   37.6258   18.5483   34.8367 O   0  0  0  0  0  0  0  0  0  0  0  0
   35.6106   15.4233   39.0537 O   0  0  0  0  0  0  0  0  0  0  0  0
   35.3668   16.5620   37.2545 O   0  0  0  0  0  0  0  0  0  0  0  0
   32.5351   17.3524   37.7318 C   0  0  0  0  0  0  0  0  0  0  0  0
   34.3704   16.8509   37.7392 C   0  0  0  0  0  0  0  0  0  0  0  0
  4  3  1  0
  5  1  1  0
  5  2  1  0
  6  5  1  0
  8  1  1  0
  8  4  1  0
 10  7  1  0
 10  9  1  0
 11  2  1  0
 14  2  1  0
 14 12  1  0
 15  4  1  0
 16 10  1  0
 18  2  1  0
 18 13  1  0
 18 14  1  0
 19  1  1  0
 19  7  1  0
 19 17  1  0
 19 18  1  0
M  END
>  <ID>  (1) 
conformer_0

$$$$
