
     RDKit          3D

 18 17  0  0  0  0  0  0  0  0999 V2000
   32.9776   17.0077   37.1744 C   0  0  0  0  0  0  0  0  0  0  0  0
   32.1210   18.0923   36.3951 C   0  0  0  0  0  0  0  0  0  0  0  0
   33.0700   19.1434   36.2211 C   0  0  0  0  0  0  0  0  0  0  0  0
   33.6762   20.5877   35.8139 O   0  0  0  0  0  0  0  0  0  0  0  0
   38.1008   20.5841   35.8976 O   0  0  0  0  0  0  0  0  0  0  0  0
   37.4944   19.3494   35.9060 P   0  0  0  0  0  0  0  0  0  0  0  0
   36.0149   19.1228   36.5634 O   0  0  0  0  0  0  0  0  0  0  0  0
   35.9762   15.0885   39.2086 O   0  0  0  0  0  0  0  0  0  0  0  0
   36.2710   15.5687   38.0061 P   0  0  0  0  0  0  0  0  0  0  0  0
   35.8743   14.4842   37.2193 O   0  0  0  0  0  0  0  0  0  0  0  0
   31.4747   18.1203   35.1148 O   0  0  0  0  0  0  0  0  0  0  0  0
   31.6485   16.5371   37.7303 O   0  0  0  0  0  0  0  0  0  0  0  0
   37.1413   18.8905   34.6009 O   0  0  0  0  0  0  0  0  0  0  0  0
   38.5301   18.5270   36.7354 O   0  0  0  0  0  0  0  0  0  0  0  0
   34.5880   18.9017   36.5298 C   0  0  0  0  0  0  0  0  0  0  0  0
   34.4646   17.0223   37.4003 C   0  0  0  0  0  0  0  0  0  0  0  0
   37.5449   16.4003   38.3966 O   0  0  0  0  0  0  0  0  0  0  0  0
   35.5291   16.5816   37.3071 O   0  0  0  0  0  0  0  0  0  0  0  0
  2  1  1  0
  3  2  1  0
  4  3  1  0
  6  5  1  0
  9  8  1  0
 10  9  1  0
 11  2  1  0
 12  1  1  0
 13  6  1  0
 14  6  1  0
 15  3  1  0
 15  7  1  0
 15 13  1  0
 16  1  1  0
 16 10  1  0
 17  9  1  0
 18 16  1  0
M  END
>  <ID>  (1) 
conformer_0

$$$$
