
     RDKit          3D

 17 16  0  0  0  0  0  0  0  0999 V2000
   34.8038   18.6446   36.4485 C   0  0  0  0  0  0  0  0  0  0  0  0
   34.2194   17.1530   37.2193 C   0  0  0  0  0  0  0  0  0  0  0  0
   33.6783   20.4366   35.8854 O   0  0  0  0  0  0  0  0  0  0  0  0
   37.7338   19.3756   35.9249 P   0  0  0  0  0  0  0  0  0  0  0  0
   38.0567   20.5401   35.9890 O   0  0  0  0  0  0  0  0  0  0  0  0
   36.2584   18.8963   36.4554 O   0  0  0  0  0  0  0  0  0  0  0  0
   35.1786   15.1035   39.3571 O   0  0  0  0  0  0  0  0  0  0  0  0
   32.3575   17.8775   36.8149 C   0  0  0  0  0  0  0  0  0  0  0  0
   35.2617   16.3535   37.5103 O   0  0  0  0  0  0  0  0  0  0  0  0
   31.7648   18.5213   34.9939 O   0  0  0  0  0  0  0  0  0  0  0  0
   36.1069   15.3457   38.2040 P   0  0  0  0  0  0  0  0  0  0  0  0
   31.1589   16.9584   37.0588 O   0  0  0  0  0  0  0  0  0  0  0  0
   38.5210   18.3385   36.7649 O   0  0  0  0  0  0  0  0  0  0  0  0
   36.2129   14.1429   37.6477 O   0  0  0  0  0  0  0  0  0  0  0  0
   37.2732   16.0435   38.3471 O   0  0  0  0  0  0  0  0  0  0  0  0
   32.9623   18.7775   36.4096 C   0  0  0  0  0  0  0  0  0  0  0  0
   37.4112   18.9827   34.6021 O   0  0  0  0  0  0  0  0  0  0  0  0
  2  1  1  0
  5  4  1  0
  6  1  1  0
  9  2  1  0
 11  7  1  0
 12  8  1  0
 13  4  1  0
 14  2  1  0
 14 11  1  0
 15 11  1  0
 16  1  1  0
 16  3  1  0
 16  8  1  0
 16 10  1  0
 17  1  1  0
 17  4  1  0
M  END
>  <ID>  (1) 
conformer_0

$$$$
