
     RDKit          3D

 20 20  0  0  0  0  0  0  0  0999 V2000
   33.4826   16.7923   36.9730 C   0  0  0  0  0  0  0  0  0  0  0  0
   32.2757   17.9728   37.2264 C   0  0  0  0  0  0  0  0  0  0  0  0
   34.8655   17.1427   37.3552 C   0  0  0  0  0  0  0  0  0  0  0  0
   37.8007   19.1084   35.8573 P   0  0  0  0  0  0  0  0  0  0  0  0
   33.6422   20.5257   35.7970 O   0  0  0  0  0  0  0  0  0  0  0  0
   36.4994   15.4895   38.2593 P   0  0  0  0  0  0  0  0  0  0  0  0
   38.6565   18.1695   36.6423 O   0  0  0  0  0  0  0  0  0  0  0  0
   37.4987   16.2828   38.6491 O   0  0  0  0  0  0  0  0  0  0  0  0
   31.8496   18.4114   34.9085 O   0  0  0  0  0  0  0  0  0  0  0  0
   36.4198   19.2905   36.5935 O   0  0  0  0  0  0  0  0  0  0  0  0
   36.3620   14.4242   37.4651 O   0  0  0  0  0  0  0  0  0  0  0  0
   38.3210   20.2730   35.7656 O   0  0  0  0  0  0  0  0  0  0  0  0
   31.0432   17.4049   37.1161 O   0  0  0  0  0  0  0  0  0  0  0  0
   37.2303   18.3945   34.7580 O   0  0  0  0  0  0  0  0  0  0  0  0
   34.9505   18.7617   36.3256 C   0  0  0  0  0  0  0  0  0  0  0  0
   35.8917   15.2397   39.4200 O   0  0  0  0  0  0  0  0  0  0  0  0
   35.5754   16.5719   37.3249 O   0  0  0  0  0  0  0  0  0  0  0  0
   33.3668   16.4570   38.6544 O   0  0  0  0  0  0  0  0  0  0  0  0
   32.4263   18.4419   35.9823 C   0  0  0  0  0  0  0  0  0  0  0  0
   33.6476   19.5051   36.5623 C   0  0  0  0  0  0  0  0  0  0  0  0
  2  1  1  0
  3  1  1  0
  7  4  1  0
  8  6  1  0
 11  3  1  0
 11  6  1  0
 12  4  1  0
 13  2  1  0
 14  4  1  0
 15  3  1  0
 15 10  1  0
 15 14  1  0
 16  6  1  0
 17  3  1  0
 18  1  1  0
 19  2  1  0
 19  9  1  0
 20  5  1  0
 20 15  1  0
 20 19  1  0
M  END
>  <ID>  (1) 
conformer_0

$$$$
