
     RDKit          3D

 20 20  0  0  0  0  0  0  0  0999 V2000
   32.2735   17.3928   37.0378 C   0  0  0  0  0  0  0  0  0  0  0  0
   33.7980   19.2673   36.4252 C   0  0  0  0  0  0  0  0  0  0  0  0
   37.6118   19.2389   35.9285 P   0  0  0  0  0  5  0  0  0  0  0  0
   37.8548   20.5985   35.5631 O   0  0  0  0  0  0  0  0  0  0  0  0
   36.3216   15.7773   37.9501 P   0  0  0  0  0  0  0  0  0  0  0  0
   32.4216   18.6451   36.4164 C   0  0  0  0  0  0  0  0  0  0  0  0
   36.3276   19.4150   36.9610 O   0  0  0  0  0  0  0  0  0  0  0  0
   33.2263   20.5507   35.9420 O   0  0  0  0  0  0  0  0  0  0  0  0
   37.5489   16.3458   38.3712 O   0  0  0  0  0  0  0  0  0  0  0  0
   35.7455   16.6125   37.1084 O   0  0  0  0  0  0  0  0  0  0  0  0
   31.9028   18.5007   34.9923 O   0  0  0  0  0  0  0  0  0  0  0  0
   33.2759   16.2537   38.4646 O   0  0  0  0  0  0  0  0  0  0  0  0
   33.7951   16.7700   37.1699 C   0  0  0  0  0  0  0  0  0  0  0  0
   31.0980   17.3272   37.2177 O   0  0  0  0  0  0  0  0  0  0  0  0
   38.7823   18.8058   35.8084 O   0  0  0  0  0  0  0  0  0  0  0  0
   35.6647   15.4873   39.1394 O   0  0  0  0  0  0  0  0  0  0  0  0
   35.8199   14.4860   37.2200 O   0  0  0  0  0  0  0  0  0  0  0  0
   34.9446   19.8620   35.0479 O   0  0  0  0  0  0  0  0  0  0  0  0
   37.2344   18.2140   35.9221 O   0  0  0  0  0  0  0  0  0  0  0  0
   34.8929   18.0434   36.5603 C   0  0  0  0  0  0  0  0  0  0  0  0
  4  3  1  0
  6  1  1  0
  6  2  1  0
  8  2  1  0
  9  5  1  0
 10  5  1  0
 11  6  1  0
 13  1  1  0
 13 12  1  0
 14  1  1  0
 15  3  1  0
 16  5  1  0
 17 13  1  0
 18  2  1  0
 19  3  1  0
 19  7  1  0
 20  2  1  0
 20  3  1  0
 20 10  1  0
 20 13  1  0
M  END
>  <ID>  (1) 
conformer_0

$$$$
