
     RDKit          3D

 19 18  0  0  0  0  0  0  0  0999 V2000
   32.5700   17.5665   37.1784 C   0  0  0  0  0  0  0  0  0  0  0  0
   34.4474   17.2008   37.1451 C   0  0  0  0  0  0  0  0  0  0  0  0
   34.8217   18.4828   36.2555 C   0  0  0  0  0  0  0  0  0  0  0  0
   33.6633   20.5623   35.7214 O   0  0  0  0  0  0  0  0  0  0  0  0
   38.0307   20.4529   35.6909 O   0  0  0  0  0  0  0  0  0  0  0  0
   37.4554   19.2735   36.0228 P   0  0  0  0  0  0  0  0  0  0  0  0
   36.5685   15.5962   38.0259 P   0  0  0  0  0  0  0  0  0  0  0  0
   31.8905   18.5517   34.9073 O   0  0  0  0  0  0  0  0  0  0  0  0
   36.2586   19.3213   36.7581 O   0  0  0  0  0  0  0  0  0  0  0  0
   36.5474   14.2404   37.2476 O   0  0  0  0  0  0  0  0  0  0  0  0
   36.0250   15.2971   39.3947 O   0  0  0  0  0  0  0  0  0  0  0  0
   31.5011   16.7255   37.5499 O   0  0  0  0  0  0  0  0  0  0  0  0
   37.7209   16.5823   38.4667 O   0  0  0  0  0  0  0  0  0  0  0  0
   33.4985   19.1695   36.0488 C   0  0  0  0  0  0  0  0  0  0  0  0
   33.7536   16.2451   38.4230 O   0  0  0  0  0  0  0  0  0  0  0  0
   36.8161   18.5900   34.9196 O   0  0  0  0  0  0  0  0  0  0  0  0
   38.5981   18.4007   36.7549 O   0  0  0  0  0  0  0  0  0  0  0  0
   32.0827   18.4393   36.4165 C   0  0  0  0  0  0  0  0  0  0  0  0
   36.0614   16.1324   37.0345 O   0  0  0  0  0  0  0  0  0  0  0  0
  3  2  1  0
  6  5  1  0
  9  3  1  0
  9  6  1  0
 10  2  1  0
 11  7  1  0
 12  1  1  0
 13  7  1  0
 14  3  1  0
 14  4  1  0
 15  2  1  0
 16  3  1  0
 17  6  1  0
 18  1  1  0
 18  8  1  0
 18 14  1  0
 19  2  1  0
 19  7  1  0
M  END
>  <ID>  (1) 
conformer_0

$$$$
