
     RDKit          3D

 20 19  0  0  0  0  0  0  0  0999 V2000
   31.9964   18.0949   36.6869 C   0  0  0  0  0  0  0  0  0  0  0  0
   34.3774   19.0632   36.3615 C   0  0  0  0  0  0  0  0  0  0  0  0
   32.9448   17.2660   37.4820 C   0  0  0  0  0  0  0  0  0  0  0  0
   37.5965   19.2802   36.0756 P   0  0  0  0  0  5  0  0  0  0  0  0
   38.3122   20.4367   35.8135 O   0  0  0  0  0  0  0  0  0  0  0  0
   36.7895   19.1927   36.7983 O   0  0  0  0  0  0  0  0  0  0  0  0
   36.4476   15.5779   38.0368 P   0  0  0  0  0  0  0  0  0  0  0  0
   36.8608   14.3570   37.3954 O   0  0  0  0  0  0  0  0  0  0  0  0
   31.8327   18.1873   34.8078 O   0  0  0  0  0  0  0  0  0  0  0  0
   35.3947   15.0389   39.1635 O   0  0  0  0  0  0  0  0  0  0  0  0
   33.7864   20.6734   35.5832 O   0  0  0  0  0  0  0  0  0  0  0  0
   32.5280   16.4476   38.6753 O   0  0  0  0  0  0  0  0  0  0  0  0
   37.5107   16.4039   38.6050 O   0  0  0  0  0  0  0  0  0  0  0  0
   30.7375   17.6510   37.0548 O   0  0  0  0  0  0  0  0  0  0  0  0
   34.3983   17.2132   37.1864 C   0  0  0  0  0  0  0  0  0  0  0  0
   37.1028   18.9225   34.6320 O   0  0  0  0  0  0  0  0  0  0  0  0
   35.5920   16.2133   37.2886 O   0  0  0  0  0  0  0  0  0  0  0  0
   38.6410   18.1746   36.8552 O   0  0  0  0  0  0  0  0  0  0  0  0
   34.7394   19.4324   36.3490 O   0  0  0  0  0  0  0  0  0  0  0  0
   32.8180   18.8876   35.9731 C   0  0  0  0  0  0  0  0  0  0  0  0
  3  1  1  0
  4  2  1  0
  5  4  1  0
  6  4  1  0
 10  7  1  0
 12  3  1  0
 13  7  1  0
 14  1  1  0
 15  3  1  0
 15  8  1  0
 16  6  1  0
 17  7  1  0
 17 15  1  0
 18  4  1  0
 19  2  1  0
 19 11  1  0
 20  1  1  0
 20  2  1  0
 20  9  1  0
M  END
>  <ID>  (1) 
conformer_0

$$$$
