
     RDKit          3D

 19 19  0  0  0  0  0  0  0  0999 V2000
   34.5824   17.2543   37.0604 C   0  0  0  0  0  0  0  0  0  0  0  0
   32.0276   18.0351   36.8067 C   0  0  0  0  0  0  0  0  0  0  0  0
   37.3750   19.5086   35.7282 P   0  0  0  0  0  0  0  0  0  0  0  0
   33.7214   20.5152   35.6892 O   0  0  0  0  0  0  0  0  0  0  0  0
   36.3603   19.4407   36.7703 O   0  0  0  0  0  0  0  0  0  0  0  0
   36.6326   15.6502   38.0030 P   0  0  0  0  0  0  0  0  0  0  0  0
   33.1748   19.0452   36.2703 C   0  0  0  0  0  0  0  0  0  0  0  0
   38.1452   20.6930   35.7494 O   0  0  0  0  0  0  0  0  0  0  0  0
   35.9695   15.1835   39.2213 O   0  0  0  0  0  0  0  0  0  0  0  0
   36.5636   14.6245   37.1165 O   0  0  0  0  0  0  0  0  0  0  0  0
   32.2338   18.4816   35.0268 O   0  0  0  0  0  0  0  0  0  0  0  0
   32.7601   16.2452   38.6698 O   0  0  0  0  0  0  0  0  0  0  0  0
   34.6878   18.7819   36.4495 C   0  0  0  0  0  0  0  0  0  0  0  0
   36.8481   18.7989   34.6576 O   0  0  0  0  0  0  0  0  0  0  0  0
   37.7247   16.4416   38.4660 O   0  0  0  0  0  0  0  0  0  0  0  0
   30.9486   16.8338   37.1442 O   0  0  0  0  0  0  0  0  0  0  0  0
   38.6373   18.5736   36.3917 O   0  0  0  0  0  0  0  0  0  0  0  0
   35.6122   16.6458   37.2549 O   0  0  0  0  0  0  0  0  0  0  0  0
   32.8260   17.1155   37.3175 C   0  0  0  0  0  0  0  0  0  0  0  0
  7  2  1  0
  7  4  1  0
  8  3  1  0
  9  6  1  0
 10  1  1  0
 10  6  1  0
 11  7  1  0
 13  1  1  0
 13  5  1  0
 13  7  1  0
 14  3  1  0
 14 13  1  0
 15  6  1  0
 16  2  1  0
 17  3  1  0
 18  1  1  0
 19  1  1  0
 19  2  1  0
 19 12  1  0
M  END
>  <ID>  (1) 
conformer_0

$$$$
