
     RDKit          3D

 19 19  0  0  0  0  0  0  0  0999 V2000
   34.9786   18.2604   36.3031 C   0  0  0  0  0  0  0  0  0  0  0  0
   32.6333   17.4261   37.1065 C   0  0  0  0  0  0  0  0  0  0  0  0
   37.9046   20.6088   35.8152 O   0  0  0  0  0  0  0  0  0  0  0  0
   37.6480   19.0539   35.8809 P   0  0  0  0  0  0  0  0  0  0  0  0
   33.6725   20.5200   35.7613 O   0  0  0  0  0  0  0  0  0  0  0  0
   36.2773   18.7636   36.3850 O   0  0  0  0  0  0  0  0  0  0  0  0
   35.8064   15.6416   38.2199 P   0  0  0  0  0  5  0  0  0  0  0  0
   35.2200   16.4856   37.5631 O   0  0  0  0  0  0  0  0  0  0  0  0
   34.2745   17.2224   37.3193 C   0  0  0  0  0  0  0  0  0  0  0  0
   31.7576   18.5933   35.1386 O   0  0  0  0  0  0  0  0  0  0  0  0
   38.7663   18.6679   36.6172 O   0  0  0  0  0  0  0  0  0  0  0  0
   34.0055   15.1929   38.9507 O   0  0  0  0  0  0  0  0  0  0  0  0
   31.7468   16.4878   37.2005 O   0  0  0  0  0  0  0  0  0  0  0  0
   37.5712   18.4851   34.5872 O   0  0  0  0  0  0  0  0  0  0  0  0
   36.3870   15.9631   39.3812 O   0  0  0  0  0  0  0  0  0  0  0  0
   36.1119   14.4096   37.7613 O   0  0  0  0  0  0  0  0  0  0  0  0
   33.8307   19.3432   36.3524 C   0  0  0  0  0  0  0  0  0  0  0  0
   37.8575   16.7383   37.5686 O   0  0  0  0  0  0  0  0  0  0  0  0
   32.3956   18.6403   36.3834 C   0  0  0  0  0  0  0  0  0  0  0  0
  4  3  1  0
  6  1  1  0
  8  7  1  0
  9  1  1  0
  9  2  1  0
  9  8  1  0
 11  4  1  0
 12  7  1  0
 13  2  1  0
 14  1  1  0
 14  4  1  0
 15  7  1  0
 16  9  1  0
 17  1  1  0
 17  5  1  0
 18  7  1  0
 19  2  1  0
 19 10  1  0
 19 17  1  0
M  END
>  <ID>  (1) 
conformer_0

$$$$
