
     RDKit          3D

 20 19  0  0  0  0  0  0  0  0999 V2000
   32.9843   19.0871   36.1339 C   0  0  0  0  0  0  0  0  0  0  0  0
   32.7572   17.2141   37.4291 C   0  0  0  0  0  0  0  0  0  0  0  0
   34.1898   16.8012   37.5008 C   0  0  0  0  0  0  0  0  0  0  0  0
   33.5313   20.7274   35.5538 O   0  0  0  0  0  0  0  0  0  0  0  0
   37.4077   19.5347   35.7353 P   0  0  0  0  0  5  0  0  0  0  0  0
   38.3022   20.5050   35.8963 O   0  0  0  0  0  0  0  0  0  0  0  0
   36.0252   15.2188   39.7137 O   0  0  0  0  0  0  0  0  0  0  0  0
   37.3295   14.3346   37.7284 O   0  0  0  0  0  0  0  0  0  0  0  0
   36.7224   15.4261   38.3407 P   0  0  0  0  0  0  0  0  0  0  0  0
   36.9977   19.3605   34.2844 O   0  0  0  0  0  0  0  0  0  0  0  0
   31.5137   18.6789   34.9944 O   0  0  0  0  0  0  0  0  0  0  0  0
   30.7479   16.9433   36.7422 O   0  0  0  0  0  0  0  0  0  0  0  0
   37.5311   16.4921   38.6941 O   0  0  0  0  0  0  0  0  0  0  0  0
   34.3122   19.0627   36.3400 C   0  0  0  0  0  0  0  0  0  0  0  0
   36.3180   19.5631   36.1214 O   0  0  0  0  0  0  0  0  0  0  0  0
   35.1106   15.0618   37.4921 O   0  0  0  0  0  0  0  0  0  0  0  0
   32.4664   16.3207   38.6083 O   0  0  0  0  0  0  0  0  0  0  0  0
   38.2140   18.3831   36.7606 O   0  0  0  0  0  0  0  0  0  0  0  0
   31.9539   18.0624   36.4867 C   0  0  0  0  0  0  0  0  0  0  0  0
   34.6097   18.6415   36.6620 O   0  0  0  0  0  0  0  0  0  0  0  0
  3  2  1  0
  4  1  1  0
  6  5  1  0
  8  3  1  0
  9  7  1  0
  9  8  1  0
 13  9  1  0
 14  1  1  0
 14  5  1  0
 15  5  1  0
 15 10  1  0
 16  3  1  0
 17  2  1  0
 18  5  1  0
 19  1  1  0
 19  2  1  0
 19 11  1  0
 19 12  1  0
 20 14  2  0
M  END
>  <ID>  (1) 
conformer_0

$$$$
