
     RDKit          3D

 20 19  0  0  0  0  0  0  0  0999 V2000
   32.5057   17.2065   36.9828 C   0  0  0  0  0  0  0  0  0  0  0  0
   32.2391   18.3160   36.1768 C   0  0  0  0  0  0  0  0  0  0  0  0
   33.3781   19.4821   36.3293 C   0  0  0  0  0  0  0  0  0  0  0  0
   37.4269   19.4305   35.8085 P   0  0  0  0  0  5  0  0  0  0  0  0
   33.5742   20.7995   35.8994 O   0  0  0  0  0  0  0  0  0  0  0  0
   38.0517   20.6513   36.0188 O   0  0  0  0  0  0  0  0  0  0  0  0
   36.1672   15.2064   39.1773 O   0  0  0  0  0  0  0  0  0  0  0  0
   35.7544   19.2921   36.4904 O   0  0  0  0  0  0  0  0  0  0  0  0
   36.7544   15.9345   37.9095 P   0  0  0  0  0  0  0  0  0  0  0  0
   35.9079   16.7957   37.3134 O   0  0  0  0  0  0  0  0  0  0  0  0
   31.1972   16.4103   37.1036 O   0  0  0  0  0  0  0  0  0  0  0  0
   32.5819   17.1992   34.9143 O   0  0  0  0  0  0  0  0  0  0  0  0
   37.9643   16.4273   38.3723 O   0  0  0  0  0  0  0  0  0  0  0  0
   33.5724   16.0350   38.6663 O   0  0  0  0  0  0  0  0  0  0  0  0
   36.8440   19.7307   34.3584 O   0  0  0  0  0  0  0  0  0  0  0  0
   34.5781   18.3990   36.4373 C   0  0  0  0  0  0  0  0  0  0  0  0
   36.5100   14.6810   37.1395 O   0  0  0  0  0  0  0  0  0  0  0  0
   38.4859   18.5008   36.8782 O   0  0  0  0  0  0  0  0  0  0  0  0
   34.1249   17.0575   37.3365 C   0  0  0  0  0  0  0  0  0  0  0  0
   37.3196   17.7701   35.3456 O   0  0  0  0  0  0  0  0  0  0  0  0
  2  1  1  0
  3  2  1  0
  5  3  1  0
  6  4  1  0
  8  4  1  0
  9  7  1  0
 10  9  1  0
 11  1  1  0
 12  2  1  0
 13  9  1  0
 15  4  1  0
 16  3  1  0
 16  8  1  0
 18  4  1  0
 19  1  1  0
 19 10  1  0
 19 14  1  0
 19 17  1  0
 20 15  1  0
M  END
>  <ID>  (1) 
conformer_0

$$$$
