
     RDKit          3D

 19 19  0  0  0  0  0  0  0  0999 V2000
   34.2526   16.9403   37.3715 C   0  0  0  0  0  0  0  0  0  0  0  0
   34.7937   18.3924   36.4733 C   0  0  0  0  0  0  0  0  0  0  0  0
   37.4242   19.6436   35.8183 P   0  0  0  0  0  0  0  0  0  0  0  0
   33.7679   20.4904   35.6461 O   0  0  0  0  0  0  0  0  0  0  0  0
   36.0765   15.1829   38.2824 P   0  0  0  0  0  0  0  0  0  0  0  0
   36.5469   14.0017   37.9738 O   0  0  0  0  0  0  0  0  0  0  0  0
   36.0889   18.9957   36.3765 O   0  0  0  0  0  0  0  0  0  0  0  0
   32.4968   18.2838   36.2794 C   0  0  0  0  0  0  0  0  0  0  0  0
   38.3441   18.5629   36.6400 O   0  0  0  0  0  0  0  0  0  0  0  0
   37.1054   19.9522   34.4601 O   0  0  0  0  0  0  0  0  0  0  0  0
   35.2403   15.1067   39.3173 O   0  0  0  0  0  0  0  0  0  0  0  0
   31.0701   17.1596   37.0827 O   0  0  0  0  0  0  0  0  0  0  0  0
   37.2053   16.3327   38.6333 O   0  0  0  0  0  0  0  0  0  0  0  0
   35.5062   16.2510   37.2246 O   0  0  0  0  0  0  0  0  0  0  0  0
   32.3011   17.8860   35.0119 O   0  0  0  0  0  0  0  0  0  0  0  0
   32.6519   17.3402   37.3496 C   0  0  0  0  0  0  0  0  0  0  0  0
   32.9647   16.2924   38.6057 O   0  0  0  0  0  0  0  0  0  0  0  0
   38.1085   20.6006   36.0999 O   0  0  0  0  0  0  0  0  0  0  0  0
   33.7458   19.3757   36.3546 C   0  0  0  0  0  0  0  0  0  0  0  0
  2  1  1  0
  6  1  1  0
  6  5  1  0
  7  2  1  0
  9  3  1  0
 10  2  1  0
 10  3  1  0
 11  5  1  0
 13  5  1  0
 14  1  1  0
 15  8  1  0
 16  1  1  0
 16  8  1  0
 16 12  1  0
 17 16  1  0
 18  3  1  0
 19  2  1  0
 19  4  1  0
 19  8  1  0
M  END
>  <ID>  (1) 
conformer_0

$$$$
