
     RDKit          3D

 21 21  0  0  0  0  0  0  0  0999 V2000
   34.8585   17.2561   37.2427 C   0  0  0  0  0  0  0  0  0  0  0  0
   32.2850   18.3670   36.0197 C   0  0  0  0  0  0  0  0  0  0  0  0
   33.3494   16.9244   36.8817 C   0  0  0  0  0  0  0  0  0  0  0  0
   33.5958   20.4878   35.9298 O   0  0  0  0  0  0  0  0  0  0  0  0
   37.6224   19.5258   35.6733 P   0  0  0  0  0  0  0  0  0  0  0  0
   36.8972   15.4150   38.3227 P   0  0  0  0  0  5  0  0  0  0  0  0
   36.4737   19.3551   36.6484 O   0  0  0  0  0  0  0  0  0  0  0  0
   37.9233   20.8312   35.4148 O   0  0  0  0  0  0  0  0  0  0  0  0
   35.3779   14.7786   39.0504 O   0  0  0  0  0  0  0  0  0  0  0  0
   37.5901   14.7585   37.5008 O   0  0  0  0  0  0  0  0  0  0  0  0
   31.5415   18.8563   35.0317 O   0  0  0  0  0  0  0  0  0  0  0  0
   35.0274   18.8045   36.4781 C   0  0  0  0  0  0  0  0  0  0  0  0
   32.5153   16.1521   38.0925 O   0  0  0  0  0  0  0  0  0  0  0  0
   35.5537   16.3406   37.4539 O   0  0  0  0  0  0  0  0  0  0  0  0
   38.0337   17.3989   38.1171 O   0  0  0  0  0  0  0  0  0  0  0  0
   36.9149   18.8550   34.6323 O   0  0  0  0  0  0  0  0  0  0  0  0
   38.9134   19.0103   36.1224 O   0  0  0  0  0  0  0  0  0  0  0  0
   30.6525   17.2940   36.9384 O   0  0  0  0  0  0  0  0  0  0  0  0
   33.4713   19.3492   36.6576 C   0  0  0  0  0  0  0  0  0  0  0  0
   37.2131   15.8248   39.5401 O   0  0  0  0  0  0  0  0  0  0  0  0
   31.9043   18.0356   37.2280 C   0  0  0  0  0  0  0  0  0  0  0  0
  3  1  1  0
  8  5  1  0
  9  6  1  0
 10  1  1  0
 10  6  1  0
 11  2  1  0
 12  1  1  0
 12  7  1  0
 13  3  1  0
 14  1  1  0
 15  6  1  0
 16  5  1  0
 16 12  1  0
 17  5  1  0
 19  2  1  0
 19  4  1  0
 19 12  1  0
 20  6  1  0
 21  2  1  0
 21  3  1  0
 21 18  1  0
M  END
>  <ID>  (1) 
conformer_0

$$$$
