
     RDKit          3D

 18 18  0  0  0  0  0  0  0  0999 V2000
   34.5391   18.8779   36.2451 C   0  0  0  0  0  0  0  0  0  0  0  0
   32.3405   17.7766   36.5942 C   0  0  0  0  0  0  0  0  0  0  0  0
   32.9795   18.8892   36.2151 C   0  0  0  0  0  0  0  0  0  0  0  0
   33.6208   20.4129   35.6642 O   0  0  0  0  0  0  0  0  0  0  0  0
   37.9728   20.3231   35.8528 O   0  0  0  0  0  0  0  0  0  0  0  0
   36.2738   19.2347   36.3381 O   0  0  0  0  0  0  0  0  0  0  0  0
   37.8740   16.7183   38.5632 O   0  0  0  0  0  0  0  0  0  0  0  0
   37.1830   14.8986   37.1582 O   0  0  0  0  0  0  0  0  0  0  0  0
   37.2268   16.1979   37.7095 P   0  0  0  0  0  0  0  0  0  0  0  0
   38.6943   18.1388   36.7080 O   0  0  0  0  0  0  0  0  0  0  0  0
   37.5074   19.2774   36.3115 P   0  0  0  0  0  0  0  0  0  0  0  0
   33.0073   16.3309   38.5619 O   0  0  0  0  0  0  0  0  0  0  0  0
   32.2943   17.9886   34.9295 O   0  0  0  0  0  0  0  0  0  0  0  0
   31.1253   17.9231   37.4711 O   0  0  0  0  0  0  0  0  0  0  0  0
   33.3853   16.9425   37.2213 C   0  0  0  0  0  0  0  0  0  0  0  0
   35.0178   17.4657   37.0219 C   0  0  0  0  0  0  0  0  0  0  0  0
   36.3034   17.0503   36.9995 O   0  0  0  0  0  0  0  0  0  0  0  0
   35.8471   15.8149   38.9884 O   0  0  0  0  0  0  0  0  0  0  0  0
  3  1  1  0
  3  2  1  0
  4  3  1  0
  6  1  1  0
  9  7  1  0
  9  8  1  0
 11  5  1  0
 11  6  1  0
 11 10  1  0
 13  2  1  0
 14  2  1  0
 15  2  1  0
 15 12  1  0
 16  1  1  0
 16  8  1  0
 16 15  1  0
 17 16  1  0
 18  9  1  0
M  END
>  <ID>  (1) 
conformer_0

$$$$
