
     RDKit          3D

 18 17  0  0  0  0  0  0  0  0999 V2000
   34.0101   18.7820   36.4674 C   0  0  0  0  0  0  0  0  0  0  0  0
   34.5607   17.3317   36.7047 C   0  0  0  0  0  0  0  0  0  0  0  0
   33.6639   20.4015   35.9442 O   0  0  0  0  0  0  0  0  0  0  0  0
   38.1102   20.4692   35.8864 O   0  0  0  0  0  0  0  0  0  0  0  0
   37.4883   19.2973   35.9220 P   0  0  0  0  0  0  0  0  0  0  0  0
   32.1583   18.5750   36.4667 C   0  0  0  0  0  0  0  0  0  0  0  0
   35.3472   15.2422   39.1117 O   0  0  0  0  0  0  0  0  0  0  0  0
   36.1382   15.6572   37.9603 P   0  0  0  0  0  0  0  0  0  0  0  0
   36.1747   18.8573   36.3592 O   0  0  0  0  0  0  0  0  0  0  0  0
   32.1713   17.9876   34.8183 O   0  0  0  0  0  0  0  0  0  0  0  0
   36.3503   14.5334   37.1106 O   0  0  0  0  0  0  0  0  0  0  0  0
   37.2745   16.5639   38.6465 O   0  0  0  0  0  0  0  0  0  0  0  0
   30.8502   17.4642   37.2911 O   0  0  0  0  0  0  0  0  0  0  0  0
   37.1221   19.1016   34.4874 O   0  0  0  0  0  0  0  0  0  0  0  0
   32.5675   17.5671   36.7594 C   0  0  0  0  0  0  0  0  0  0  0  0
   38.3733   18.5553   37.0553 O   0  0  0  0  0  0  0  0  0  0  0  0
   35.6441   16.4630   37.1061 O   0  0  0  0  0  0  0  0  0  0  0  0
   32.8187   16.5327   38.3579 O   0  0  0  0  0  0  0  0  0  0  0  0
  2  1  1  0
  3  1  1  0
  5  4  1  0
  8  7  1  0
  9  1  1  0
  9  5  1  0
 10  6  1  0
 11  2  1  0
 12  8  1  0
 14  1  1  0
 15  2  1  0
 15  6  1  0
 15 13  1  0
 16  5  1  0
 17  2  1  0
 17  8  1  0
 18 15  1  0
M  END
>  <ID>  (1) 
conformer_0

$$$$
