
     RDKit          3D

 18 17  0  0  0  0  0  0  0  0999 V2000
   34.5733   18.8645   36.2057 C   0  0  0  0  0  0  0  0  0  0  0  0
   32.7303   17.2946   37.2702 C   0  0  0  0  0  0  0  0  0  0  0  0
   32.9061   18.9555   36.3321 C   0  0  0  0  0  0  0  0  0  0  0  0
   38.0188   20.3270   36.0702 O   0  0  0  0  0  0  0  0  0  0  0  0
   37.7584   19.0834   35.9682 P   0  0  0  0  0  0  0  0  0  0  0  0
   31.2017   16.6403   37.1270 O   0  0  0  0  0  0  0  0  0  0  0  0
   36.9362   14.3409   37.3786 O   0  0  0  0  0  0  0  0  0  0  0  0
   34.2264   20.4327   35.3976 O   0  0  0  0  0  0  0  0  0  0  0  0
   37.4064   16.2645   38.7353 O   0  0  0  0  0  0  0  0  0  0  0  0
   36.7837   15.6778   37.9595 P   0  0  0  0  0  0  0  0  0  0  0  0
   36.4214   18.7749   36.3380 O   0  0  0  0  0  0  0  0  0  0  0  0
   38.5929   17.9181   37.1109 O   0  0  0  0  0  0  0  0  0  0  0  0
   32.2971   18.9910   37.1304 O   0  0  0  0  0  0  0  0  0  0  0  0
   37.8159   18.5197   34.6466 O   0  0  0  0  0  0  0  0  0  0  0  0
   34.6090   17.4743   37.0898 C   0  0  0  0  0  0  0  0  0  0  0  0
   32.2858   18.7026   35.0287 O   0  0  0  0  0  0  0  0  0  0  0  0
   35.1665   15.5164   39.0357 O   0  0  0  0  0  0  0  0  0  0  0  0
   35.9734   16.2859   37.1739 O   0  0  0  0  0  0  0  0  0  0  0  0
  5  4  1  0
  6  2  1  0
  8  1  1  0
 10  9  1  0
 11  1  1  0
 11  5  1  0
 12  5  1  0
 13  2  1  0
 13  3  1  0
 14  1  1  0
 15  1  1  0
 15  2  1  0
 15  7  1  0
 16  3  1  0
 17 10  1  0
 18 10  1  0
 18 15  1  0
M  END
>  <ID>  (1) 
conformer_0

$$$$
