
     RDKit          3D

 21 21  0  0  0  0  0  0  0  0999 V2000
   31.8386   17.6306   36.5034 C   0  0  0  0  0  0  0  0  0  0  0  0
   34.1181   17.1239   37.2272 C   0  0  0  0  0  0  0  0  0  0  0  0
   37.1787   19.4443   35.6901 P   0  0  0  0  0  5  0  0  0  0  0  0
   37.9656   20.6021   35.6502 O   0  0  0  0  0  0  0  0  0  0  0  0
   36.3316   15.7284   38.1295 P   0  0  0  0  0  0  0  0  0  0  0  0
   36.3878   19.4702   36.7059 O   0  0  0  0  0  0  0  0  0  0  0  0
   37.4784   16.8793   38.4779 O   0  0  0  0  0  0  0  0  0  0  0  0
   36.7714   17.4390   35.4680 O   0  0  0  0  0  0  0  0  0  0  0  0
   31.7954   18.2880   35.0047 O   0  0  0  0  0  0  0  0  0  0  0  0
   32.6786   17.1053   37.5731 C   0  0  0  0  0  0  0  0  0  0  0  0
   33.7802   20.2138   35.4446 O   0  0  0  0  0  0  0  0  0  0  0  0
   33.3314   15.8422   38.7939 O   0  0  0  0  0  0  0  0  0  0  0  0
   35.6626   15.6302   39.2645 O   0  0  0  0  0  0  0  0  0  0  0  0
   36.5446   19.4045   34.2315 O   0  0  0  0  0  0  0  0  0  0  0  0
   38.4812   18.6033   36.6607 O   0  0  0  0  0  0  0  0  0  0  0  0
   36.6417   14.3867   37.8293 O   0  0  0  0  0  0  0  0  0  0  0  0
   32.5912   18.8954   36.4307 C   0  0  0  0  0  0  0  0  0  0  0  0
   34.2165   18.9202   36.8814 O   0  0  0  0  0  0  0  0  0  0  0  0
   34.5250   18.7566   36.6669 C   0  0  0  0  0  0  0  0  0  0  0  0
   35.5636   16.2415   37.2421 O   0  0  0  0  0  0  0  0  0  0  0  0
   31.4224   16.7060   37.8797 O   0  0  0  0  0  0  0  0  0  0  0  0
  4  3  1  0
  6  3  1  0
  7  5  1  0
  9  1  1  0
 10  1  1  0
 10  2  1  0
 12 10  1  0
 13  5  1  0
 14  3  1  0
 14  8  1  0
 15  3  1  0
 16  2  1  0
 17  1  1  0
 17 11  1  0
 18 17  1  0
 19  2  1  0
 19  6  1  0
 19 18  1  0
 20  2  1  0
 20  5  1  0
 21 10  1  0
M  END
>  <ID>  (1) 
conformer_0

$$$$
