
     RDKit          3D

 20 20  0  0  0  0  0  0  0  0999 V2000
   32.4071   18.0237   36.2287 C   0  0  0  0  0  0  0  0  0  0  0  0
   34.1878   16.6389   37.6123 C   0  0  0  0  0  0  0  0  0  0  0  0
   35.1245   17.6220   36.6741 C   0  0  0  0  0  0  0  0  0  0  0  0
   33.5968   20.4349   35.8337 O   0  0  0  0  0  0  0  0  0  0  0  0
   37.6927   19.3063   35.8518 P   0  0  0  0  0  0  0  0  0  0  0  0
   38.2390   20.5379   35.8517 O   0  0  0  0  0  0  0  0  0  0  0  0
   36.6768   15.6075   38.1655 P   0  0  0  0  0  0  0  0  0  0  0  0
   36.3407   19.0976   36.4834 O   0  0  0  0  0  0  0  0  0  0  0  0
   31.6780   18.7825   35.1009 O   0  0  0  0  0  0  0  0  0  0  0  0
   37.6721   16.6122   38.4785 O   0  0  0  0  0  0  0  0  0  0  0  0
   36.5002   14.4687   37.4762 O   0  0  0  0  0  0  0  0  0  0  0  0
   33.3348   16.2041   38.8402 O   0  0  0  0  0  0  0  0  0  0  0  0
   31.3206   16.8528   37.1192 O   0  0  0  0  0  0  0  0  0  0  0  0
   32.6563   17.4074   37.5377 C   0  0  0  0  0  0  0  0  0  0  0  0
   38.5826   18.4679   36.6193 O   0  0  0  0  0  0  0  0  0  0  0  0
   35.7297   16.5530   37.3759 O   0  0  0  0  0  0  0  0  0  0  0  0
   36.0993   15.3561   39.3676 O   0  0  0  0  0  0  0  0  0  0  0  0
   37.2149   18.8942   34.6904 O   0  0  0  0  0  0  0  0  0  0  0  0
   34.6797   19.0142   36.2944 C   0  0  0  0  0  0  0  0  0  0  0  0
   32.9369   19.2722   36.4413 C   0  0  0  0  0  0  0  0  0  0  0  0
  3  2  1  0
  6  5  1  0
  9  1  1  0
 10  7  1  0
 11  2  1  0
 11  7  1  0
 12  2  1  0
 14  1  1  0
 14  2  1  0
 14 13  1  0
 15  5  1  0
 16  3  1  0
 17  7  1  0
 18  5  1  0
 19  3  1  0
 19  8  1  0
 19 18  1  0
 20  1  1  0
 20  4  1  0
 20 19  1  0
M  END
>  <ID>  (1) 
conformer_0

$$$$
