
     RDKit          3D

 17 16  0  0  0  0  0  0  0  0999 V2000
   33.4568   16.9698   37.3572 C   0  0  0  0  0  0  0  0  0  0  0  0
   32.3370   17.7260   36.5809 C   0  0  0  0  0  0  0  0  0  0  0  0
   33.5630   20.4918   35.8772 O   0  0  0  0  0  0  0  0  0  0  0  0
   38.0886   20.6520   35.9375 O   0  0  0  0  0  0  0  0  0  0  0  0
   37.6653   19.3299   35.8629 P   0  0  0  0  0  0  0  0  0  0  0  0
   34.7538   18.3644   36.6524 C   0  0  0  0  0  0  0  0  0  0  0  0
   31.7586   18.2231   34.9648 O   0  0  0  0  0  0  0  0  0  0  0  0
   36.2616   18.8021   36.5784 O   0  0  0  0  0  0  0  0  0  0  0  0
   36.1333   15.6429   39.2464 O   0  0  0  0  0  0  0  0  0  0  0  0
   33.4161   16.0167   38.7809 O   0  0  0  0  0  0  0  0  0  0  0  0
   37.7875   16.5501   38.0340 O   0  0  0  0  0  0  0  0  0  0  0  0
   31.2891   16.4765   37.3208 O   0  0  0  0  0  0  0  0  0  0  0  0
   37.2326   18.9636   34.6003 O   0  0  0  0  0  0  0  0  0  0  0  0
   37.0113   16.1248   37.9796 P   0  0  0  0  0  0  0  0  0  0  0  0
   33.2254   18.9277   36.3165 C   0  0  0  0  0  0  0  0  0  0  0  0
   36.0170   15.1684   37.3789 O   0  0  0  0  0  0  0  0  0  0  0  0
   38.7859   18.5909   36.5556 O   0  0  0  0  0  0  0  0  0  0  0  0
  2  1  1  0
  5  4  1  0
  7  2  1  0
  8  6  1  0
 10  1  1  0
 12  2  1  0
 13  5  1  0
 13  6  1  0
 14  9  1  0
 14 11  1  0
 15  2  1  0
 15  3  1  0
 15  6  1  0
 16  1  1  0
 16 14  1  0
 17  5  1  0
M  END
>  <ID>  (1) 
conformer_0

$$$$
