
     RDKit          3D

 19 18  0  0  0  0  0  0  0  0999 V2000
   34.1363   16.8711   37.1986 C   0  0  0  0  0  0  0  0  0  0  0  0
   32.6040   17.5930   36.7380 C   0  0  0  0  0  0  0  0  0  0  0  0
   33.8430   20.5857   35.6824 O   0  0  0  0  0  0  0  0  0  0  0  0
   37.5419   19.2643   35.9385 P   0  0  0  0  0  0  0  0  0  0  0  0
   36.3034   15.4540   38.0676 P   0  0  0  0  0  0  0  0  0  0  0  0
   38.1381   20.4905   35.7086 O   0  0  0  0  0  0  0  0  0  0  0  0
   36.4730   19.1991   36.7353 O   0  0  0  0  0  0  0  0  0  0  0  0
   32.1542   18.6700   36.1350 C   0  0  0  0  0  0  0  0  0  0  0  0
   35.6496   14.3347   37.2550 O   0  0  0  0  0  0  0  0  0  0  0  0
   35.9199   15.1464   39.3671 O   0  0  0  0  0  0  0  0  0  0  0  0
   33.4642   16.0880   38.4310 O   0  0  0  0  0  0  0  0  0  0  0  0
   32.0431   17.8381   34.9407 O   0  0  0  0  0  0  0  0  0  0  0  0
   33.6408   19.3854   36.2258 C   0  0  0  0  0  0  0  0  0  0  0  0
   37.2174   18.7341   34.7332 O   0  0  0  0  0  0  0  0  0  0  0  0
   38.6713   18.2569   36.5767 O   0  0  0  0  0  0  0  0  0  0  0  0
   37.6692   16.1547   38.2999 O   0  0  0  0  0  0  0  0  0  0  0  0
   35.8685   16.5564   37.1891 O   0  0  0  0  0  0  0  0  0  0  0  0
   31.5194   16.8340   37.4893 O   0  0  0  0  0  0  0  0  0  0  0  0
   34.8288   18.2292   36.6051 C   0  0  0  0  0  0  0  0  0  0  0  0
  6  4  1  0
  7  4  1  0
  8  2  1  0
  9  1  1  0
 10  5  1  0
 11  1  1  0
 12  8  1  0
 13  3  1  0
 13  8  1  0
 15  4  1  0
 16  5  1  0
 17  1  1  0
 17  5  1  0
 18  2  1  0
 19  1  1  0
 19  7  1  0
 19 13  1  0
 19 14  1  0
M  END
>  <ID>  (1) 
conformer_0

$$$$
