
     RDKit          3D

 21 21  0  0  0  0  0  0  0  0999 V2000
   32.1016   17.6333   37.1295 C   0  0  0  0  0  0  0  0  0  0  0  0
   33.9115   17.0188   37.4558 C   0  0  0  0  0  0  0  0  0  0  0  0
   37.9756   20.7057   35.8389 O   0  0  0  0  0  0  0  0  0  0  0  0
   37.9777   19.2290   35.9743 P   0  0  0  0  0  0  0  0  0  0  0  0
   33.8518   20.2775   35.6427 O   0  0  0  0  0  0  0  0  0  0  0  0
   32.3019   18.5055   36.3549 C   0  0  0  0  0  0  0  0  0  0  0  0
   36.6444   18.9405   36.7569 O   0  0  0  0  0  0  0  0  0  0  0  0
   36.4046   14.2112   37.5376 O   0  0  0  0  0  0  0  0  0  0  0  0
   34.4050   14.6987   39.1366 O   0  0  0  0  0  0  0  0  0  0  0  0
   31.9123   18.8679   34.9817 O   0  0  0  0  0  0  0  0  0  0  0  0
   36.0306   15.5473   38.2195 P   0  0  0  0  0  5  0  0  0  0  0  0
   37.8354   18.6853   34.5784 O   0  0  0  0  0  0  0  0  0  0  0  0
   39.4004   18.7427   36.2789 O   0  0  0  0  0  0  0  0  0  0  0  0
   38.1625   17.3239   38.0789 O   0  0  0  0  0  0  0  0  0  0  0  0
   32.3146   16.1485   38.1640 O   0  0  0  0  0  0  0  0  0  0  0  0
   33.8700   19.0990   36.3867 C   0  0  0  0  0  0  0  0  0  0  0  0
   30.5144   17.5881   36.6744 O   0  0  0  0  0  0  0  0  0  0  0  0
   34.8735   16.0574   37.7625 O   0  0  0  0  0  0  0  0  0  0  0  0
   36.6367   15.6744   39.3977 O   0  0  0  0  0  0  0  0  0  0  0  0
   34.9956   18.0280   36.7857 C   0  0  0  0  0  0  0  0  0  0  0  0
   36.7285   16.7862   36.9549 O   0  0  0  0  0  0  0  0  0  0  0  0
  2  1  1  0
  4  3  1  0
  6  1  1  0
  8  2  1  0
 10  6  1  0
 11  9  1  0
 12  4  1  0
 13  4  1  0
 15  1  1  0
 16  5  1  0
 16  6  1  0
 17  1  1  0
 18  2  1  0
 18 11  1  0
 19 11  1  0
 20  2  1  0
 20  7  1  0
 20 12  1  0
 20 16  1  0
 21 11  1  0
 21 14  1  0
M  END
>  <ID>  (1) 
conformer_0

$$$$
