
     RDKit          3D

 18 17  0  0  0  0  0  0  0  0999 V2000
   32.8336   18.9257   36.3197 C   0  0  0  0  0  0  0  0  0  0  0  0
   34.1012   17.0602   37.1375 C   0  0  0  0  0  0  0  0  0  0  0  0
   33.7522   20.5711   35.7741 O   0  0  0  0  0  0  0  0  0  0  0  0
   32.4920   17.6541   36.8006 C   0  0  0  0  0  0  0  0  0  0  0  0
   38.1028   20.5163   35.8554 O   0  0  0  0  0  0  0  0  0  0  0  0
   37.5054   19.2487   36.0873 P   0  0  0  0  0  0  0  0  0  0  0  0
   36.5060   15.7242   38.1662 P   0  0  0  0  0  0  0  0  0  0  0  0
   36.8317   14.5385   37.5167 O   0  0  0  0  0  0  0  0  0  0  0  0
   36.2154   19.0940   36.7383 O   0  0  0  0  0  0  0  0  0  0  0  0
   35.5368   15.2023   39.2449 O   0  0  0  0  0  0  0  0  0  0  0  0
   31.8817   18.3316   34.8857 O   0  0  0  0  0  0  0  0  0  0  0  0
   38.5944   18.4026   36.9931 O   0  0  0  0  0  0  0  0  0  0  0  0
   32.5514   16.3020   38.3423 O   0  0  0  0  0  0  0  0  0  0  0  0
   35.6062   16.6259   37.2803 O   0  0  0  0  0  0  0  0  0  0  0  0
   34.4400   18.8449   36.3768 C   0  0  0  0  0  0  0  0  0  0  0  0
   30.8088   17.7778   37.0813 O   0  0  0  0  0  0  0  0  0  0  0  0
   36.9665   18.6720   34.8302 O   0  0  0  0  0  0  0  0  0  0  0  0
   37.4672   16.6628   38.6935 O   0  0  0  0  0  0  0  0  0  0  0  0
  4  1  1  0
  4  2  1  0
  6  5  1  0
  8  2  1  0
  8  7  1  0
  9  6  1  0
 10  7  1  0
 11  1  1  0
 12  6  1  0
 13  4  1  0
 14  2  2  0
 15  1  1  0
 15  3  1  0
 15  9  1  0
 16  4  1  0
 17 15  1  0
 18  7  1  0
M  END
>  <ID>  (1) 
conformer_0

$$$$
