
     RDKit          3D

 19 19  0  0  0  0  0  0  0  0999 V2000
   32.5697   17.6367   36.9768 C   0  0  0  0  0  0  0  0  0  0  0  0
   33.5393   19.4584   36.3283 C   0  0  0  0  0  0  0  0  0  0  0  0
   32.1471   18.4993   36.1969 C   0  0  0  0  0  0  0  0  0  0  0  0
   37.7730   19.2351   35.7258 P   0  0  0  0  0  0  0  0  0  0  0  0
   33.8787   20.4871   35.6629 O   0  0  0  0  0  0  0  0  0  0  0  0
   37.9453   20.4609   35.5678 O   0  0  0  0  0  0  0  0  0  0  0  0
   36.3084   15.4467   38.3159 P   0  0  0  0  0  0  0  0  0  0  0  0
   35.4763   15.0313   39.4471 O   0  0  0  0  0  0  0  0  0  0  0  0
   36.1709   19.0215   36.4336 O   0  0  0  0  0  0  0  0  0  0  0  0
   36.9141   14.6049   37.4320 O   0  0  0  0  0  0  0  0  0  0  0  0
   31.6297   18.5308   34.8751 O   0  0  0  0  0  0  0  0  0  0  0  0
   31.0172   16.8985   36.8250 O   0  0  0  0  0  0  0  0  0  0  0  0
   38.6025   18.4987   36.6258 O   0  0  0  0  0  0  0  0  0  0  0  0
   37.3140   16.4372   39.0109 O   0  0  0  0  0  0  0  0  0  0  0  0
   37.4681   18.3052   34.6100 O   0  0  0  0  0  0  0  0  0  0  0  0
   34.7297   18.2992   36.6667 C   0  0  0  0  0  0  0  0  0  0  0  0
   35.4377   16.2879   37.4402 O   0  0  0  0  0  0  0  0  0  0  0  0
   34.3017   17.0516   37.4603 C   0  0  0  0  0  0  0  0  0  0  0  0
   32.7776   16.2465   38.1803 O   0  0  0  0  0  0  0  0  0  0  0  0
  3  1  1  0
  3  2  1  0
  5  2  1  0
  6  4  1  0
  8  7  1  0
 10  7  1  0
 11  3  1  0
 12  1  1  0
 13  4  1  0
 14  7  1  0
 15  4  1  0
 16  2  1  0
 16  9  1  0
 16 15  1  0
 18  1  1  0
 18 10  1  0
 18 16  1  0
 18 17  1  0
 19  1  1  0
M  END
>  <ID>  (1) 
conformer_0

$$$$
