
     RDKit          3D

 21 20  0  0  0  0  0  0  0  0999 V2000
   32.3265   17.5062   37.2342 C   0  0  0  0  0  0  0  0  0  0  0  0
   33.8828   16.7600   37.1339 C   0  0  0  0  0  0  0  0  0  0  0  0
   37.6017   19.3519   35.9608 P   0  0  0  0  0  0  0  0  0  0  0  0
   34.7490   17.6754   36.6196 C   0  0  0  0  0  0  0  0  0  0  0  0
   38.0921   20.8093   36.0019 O   0  0  0  0  0  0  0  0  0  0  0  0
   36.7273   15.5647   38.1327 P   0  0  0  0  0  5  0  0  0  0  0  0
   31.7208   18.9193   34.8505 O   0  0  0  0  0  0  0  0  0  0  0  0
   36.2535   19.2302   36.6678 O   0  0  0  0  0  0  0  0  0  0  0  0
   34.9062   15.4669   38.8832 O   0  0  0  0  0  0  0  0  0  0  0  0
   36.5370   14.4156   37.4568 O   0  0  0  0  0  0  0  0  0  0  0  0
   33.7112   20.3647   35.4566 O   0  0  0  0  0  0  0  0  0  0  0  0
   32.5259   16.3396   38.3149 O   0  0  0  0  0  0  0  0  0  0  0  0
   37.2232   18.9585   34.6179 O   0  0  0  0  0  0  0  0  0  0  0  0
   36.9333   15.7047   39.3509 O   0  0  0  0  0  0  0  0  0  0  0  0
   32.0299   18.1563   36.0953 C   0  0  0  0  0  0  0  0  0  0  0  0
   30.7694   17.6197   37.1847 O   0  0  0  0  0  0  0  0  0  0  0  0
   38.9207   18.7039   36.3105 O   0  0  0  0  0  0  0  0  0  0  0  0
   36.0380   16.7914   37.0301 O   0  0  0  0  0  0  0  0  0  0  0  0
   32.7967   19.5045   36.4259 C   0  0  0  0  0  0  0  0  0  0  0  0
   34.3860   19.3279   36.4022 C   0  0  0  0  0  0  0  0  0  0  0  0
   38.1910   16.9584   37.9620 O   0  0  0  0  0  0  0  0  0  0  0  0
  2  1  1  0
  4  2  1  0
  5  3  1  0
  9  6  1  0
 10  2  1  0
 10  6  1  0
 12  1  1  0
 13  3  1  0
 14  6  1  0
 15  1  1  0
 15  7  1  0
 16  1  1  0
 17  3  1  0
 18  4  1  0
 19 15  1  0
 20  8  1  0
 20 11  1  0
 20 13  1  0
 20 19  1  0
 21  6  1  0
M  END
>  <ID>  (1) 
conformer_0

$$$$
