
     RDKit          3D

 19 18  0  0  0  0  0  0  0  0999 V2000
   32.6120   18.0409   36.5410 C   0  0  0  0  0  0  0  0  0  0  0  0
   34.9353   18.2038   36.6253 C   0  0  0  0  0  0  0  0  0  0  0  0
   33.7991   20.5543   35.7694 O   0  0  0  0  0  0  0  0  0  0  0  0
   37.9076   20.2568   35.9382 O   0  0  0  0  0  0  0  0  0  0  0  0
   37.5456   18.9986   35.9473 P   0  0  0  0  0  0  0  0  0  0  0  0
   36.8806   14.6977   37.1888 O   0  0  0  0  0  1  0  0  0  0  0  0
   35.5255   15.3014   39.2998 O   0  0  0  0  0  0  0  0  0  0  0  0
   33.8560   17.3072   37.4282 C   0  0  0  0  0  0  0  0  0  0  0  0
   38.6727   17.9721   37.0883 O   0  0  0  0  0  0  0  0  0  0  0  0
   31.6906   18.9174   34.9648 O   0  0  0  0  0  0  0  0  0  0  0  0
   36.8235   15.8665   37.9600 P   0  0  0  0  0  4  0  0  0  0  0  0
   36.2262   18.8692   36.5640 O   0  0  0  0  0  0  0  0  0  0  0  0
   32.8316   16.3396   38.4065 O   0  0  0  0  0  0  0  0  0  0  0  0
   31.4169   17.8306   37.1483 C   0  0  0  0  0  0  0  0  0  0  0  0
   37.4224   18.1802   34.8201 O   0  0  0  0  0  0  0  0  0  0  0  0
   33.5125   19.0785   36.2308 C   0  0  0  0  0  0  0  0  0  0  0  0
   37.5834   16.2591   38.8117 O   0  0  0  0  0  0  0  0  0  0  0  0
   35.7870   16.5958   37.4524 O   0  0  0  0  0  0  0  0  0  0  0  0
   32.5445   16.9850   35.1314 O   0  0  0  0  0  0  0  0  0  0  0  0
  5  4  1  0
  8  2  1  0
  9  5  1  0
 10  1  1  0
 11  6  1  0
 11  7  1  0
 12  2  1  0
 13  8  1  0
 14  1  1  0
 15  2  1  0
 15  5  1  0
 16  1  1  0
 16  3  1  0
 16  8  1  0
 17 11  1  0
 18  2  1  0
 18 11  1  0
 19  1  1  0
M  RAD  2   6   2  11   2
M  END
>  <ID>  (1) 
conformer_0

$$$$
