
     RDKit          3D

 20 20  0  0  0  0  0  0  0  0999 V2000
   32.0659   17.6394   37.5108 C   0  0  0  0  0  0  0  0  0  0  0  0
   34.6130   18.4041   36.5441 C   0  0  0  0  0  0  0  0  0  0  0  0
   37.2633   19.3509   35.7654 P   0  0  0  0  0  4  0  0  0  0  0  0
   33.6514   20.5745   35.7860 O   0  0  0  0  0  0  0  0  0  0  0  0
   37.8517   20.5794   35.7631 O   0  0  0  0  0  0  0  0  0  0  0  0
   33.4894   19.3207   36.3241 C   0  0  0  0  0  0  0  0  0  0  0  0
   36.0435   15.7137   39.0972 O   0  0  0  0  0  0  0  0  0  0  0  0
   36.7776   15.8172   37.6500 P   0  0  0  0  0  4  0  0  0  0  0  0
   35.8732   19.1809   36.4823 O   0  0  0  0  0  0  0  0  0  0  0  0
   36.5834   14.4076   37.2431 O   0  0  0  0  0  1  0  0  0  0  0  0
   31.9977   18.4444   34.9697 O   0  0  0  0  0  0  0  0  0  0  0  0
   30.9145   16.8074   37.4939 O   0  0  0  0  0  0  0  0  0  0  0  0
   38.1581   16.3607   38.0975 O   0  0  0  0  0  0  0  0  0  0  0  0
   32.1489   18.3241   36.3652 C   0  0  0  0  0  0  0  0  0  0  0  0
   36.9717   18.9343   34.4885 O   0  0  0  0  0  0  0  0  0  0  0  0
   32.9853   16.2637   38.6908 O   0  0  0  0  0  0  0  0  0  0  0  0
   37.1908   16.9776   36.1984 O   0  0  0  0  0  1  0  0  0  0  0  0
   38.4463   18.6048   36.8148 O   0  0  0  0  0  0  0  0  0  0  0  0
   33.7558   17.2588   37.4496 C   0  0  0  0  0  0  0  0  0  0  0  0
   35.2155   16.1253   37.2822 O   0  0  0  0  0  0  0  0  0  0  0  0
  5  3  1  0
  6  2  1  0
  6  4  1  0
  8  7  1  0
  9  2  1  0
 10  8  1  0
 12  1  1  0
 13  8  1  0
 14  1  1  0
 14  6  1  0
 14 11  1  0
 15  2  1  0
 15  3  1  0
 17  3  1  0
 18  3  1  0
 19  1  1  0
 19  2  1  0
 19 16  1  0
 20  8  1  0
 20 19  1  0
M  RAD  4   3   2   8   2  10   2  17   2
M  END
>  <ID>  (1) 
conformer_0

$$$$
