
     RDKit          3D

 20 19  0  0  0  0  0  0  0  0999 V2000
   34.4293   17.0996   37.1644 C   0  0  0  0  0  0  0  0  0  0  0  0
   32.7908   19.0046   36.1395 C   0  0  0  0  0  0  0  0  0  0  0  0
   34.2594   19.0354   36.2010 C   0  0  0  0  0  0  0  0  0  0  0  0
   37.5091   19.5126   35.7482 P   0  0  0  0  0  0  0  0  0  0  0  0
   37.0560   15.8751   38.0433 P   0  0  0  0  0  0  0  0  0  0  0  0
   34.1007   20.4290   35.3624 O   0  0  0  0  0  0  0  0  0  0  0  0
   37.9509   20.6360   35.6862 O   0  0  0  0  0  0  0  0  0  0  0  0
   37.6337   14.7968   37.4533 O   0  0  0  0  0  0  0  0  0  0  0  0
   31.6060   19.0560   34.9280 O   0  0  0  0  0  0  0  0  0  0  0  0
   36.3614   15.5443   39.3746 O   0  0  0  0  0  0  0  0  0  0  0  0
   35.9588   19.3530   36.3770 O   0  0  0  0  0  0  0  0  0  0  0  0
   37.8761   17.0377   38.4126 O   0  0  0  0  0  0  0  0  0  0  0  0
   30.8908   17.8307   37.5430 O   0  0  0  0  0  0  0  0  0  0  0  0
   32.9625   16.3827   38.6834 O   0  0  0  0  0  0  0  0  0  0  0  0
   35.8967   16.2543   37.1995 O   0  0  0  0  0  0  0  0  0  0  0  0
   33.0306   17.0892   37.4855 C   0  0  0  0  0  0  0  0  0  0  0  0
   31.9509   17.8736   36.4991 C   0  0  0  0  0  0  0  0  0  0  0  0
   32.6927   17.0512   34.9422 O   0  0  0  0  0  0  0  0  0  0  0  0
   37.0163   18.7348   34.7191 O   0  0  0  0  0  0  0  0  0  0  0  0
   38.4936   18.5178   36.6229 O   0  0  0  0  0  0  0  0  0  0  0  0
  3  2  1  0
  6  3  1  0
  7  4  1  0
  8  1  1  0
  8  5  1  0
  9  2  1  0
 10  5  1  0
 11  3  1  0
 12  5  1  0
 15  1  1  0
 16  1  1  0
 16 14  1  0
 17  2  1  0
 17 13  1  0
 17 16  1  0
 18 17  1  0
 19  3  1  0
 19  4  1  0
 20  4  1  0
M  END
>  <ID>  (1) 
conformer_0

$$$$
