
     RDKit          3D

 20 20  0  0  0  0  0  0  0  0999 V2000
   32.4484   18.2578   36.0304 C   0  0  0  0  0  0  0  0  0  0  0  0
   32.0427   17.7128   37.5048 C   0  0  0  0  0  0  0  0  0  0  0  0
   33.3668   16.9938   37.4044 C   0  0  0  0  0  0  0  0  0  0  0  0
   37.8388   20.4506   35.6002 O   0  0  0  0  0  0  0  0  0  0  0  0
   33.9457   20.5514   35.5714 O   0  0  0  0  0  0  0  0  0  0  0  0
   32.0026   18.0858   34.9678 O   0  0  0  0  0  0  0  0  0  0  0  0
   36.7314   15.7225   37.9336 P   0  0  0  0  0  0  0  0  0  0  0  0
   37.4395   19.0886   35.8096 P   0  0  0  0  0  0  0  0  0  0  0  0
   36.6325   14.3058   37.4409 O   0  0  0  0  0  0  0  0  0  0  0  0
   37.1635   18.4324   34.5371 O   0  0  0  0  0  0  0  0  0  0  0  0
   37.9643   16.6151   38.1421 O   0  0  0  0  0  0  0  0  0  0  0  0
   31.8418   16.5062   38.2848 O   0  0  0  0  0  0  0  0  0  0  0  0
   38.6084   18.6339   36.6352 O   0  0  0  0  0  0  0  0  0  0  0  0
   36.1679   18.7986   36.5649 O   0  0  0  0  0  0  0  0  0  0  0  0
   33.2738   19.5702   36.3233 C   0  0  0  0  0  0  0  0  0  0  0  0
   35.7216   16.5358   37.3508 O   0  0  0  0  0  0  0  0  0  0  0  0
   36.5179   15.4940   39.2521 O   0  0  0  0  0  0  0  0  0  0  0  0
   34.6215   19.0339   36.2603 C   0  0  0  0  0  0  0  0  0  0  0  0
   34.7952   17.5894   37.2849 C   0  0  0  0  0  0  0  0  0  0  0  0
   33.7887   15.9278   38.8513 O   0  0  0  0  0  0  0  0  0  0  0  0
  2  1  1  0
  3  2  1  0
  6  1  1  0
  8  4  1  0
 10  8  1  0
 11  7  1  0
 12  2  1  0
 13  8  1  0
 15  1  1  0
 15  5  1  0
 16  7  1  0
 17  7  1  0
 18 10  1  0
 18 14  1  0
 18 15  1  0
 19  3  1  0
 19  9  1  0
 19 16  1  0
 19 18  1  0
 20  3  1  0
M  END
>  <ID>  (1) 
conformer_0

$$$$
