
     RDKit          3D

 19 19  0  0  0  0  0  0  0  0999 V2000
   31.8436   18.2188   36.3795 C   0  0  0  0  0  0  0  0  0  0  0  0
   32.7808   17.5062   37.1054 C   0  0  0  0  0  0  0  0  0  0  0  0
   33.8231   20.7494   35.7920 O   0  0  0  0  0  0  0  0  0  0  0  0
   37.9290   20.3274   35.8687 O   0  0  0  0  0  0  0  0  0  0  0  0
   37.3736   18.9222   36.2602 P   0  0  0  0  0  0  0  0  0  0  0  0
   33.0610   19.5645   36.2014 C   0  0  0  0  0  0  0  0  0  0  0  0
   36.6856   14.0245   37.9512 O   0  0  0  0  0  1  0  0  0  0  0  0
   37.5272   16.3999   38.7656 O   0  0  0  0  0  0  0  0  0  0  0  0
   36.3347   15.4519   38.2252 P   0  0  0  0  0  4  0  0  0  0  0  0
   36.2481   18.8130   34.7989 O   0  0  0  0  0  0  0  0  0  0  0  0
   38.4943   18.0095   36.5615 O   0  0  0  0  0  0  0  0  0  0  0  0
   33.3380   16.0276   38.0973 O   0  0  0  0  0  0  0  0  0  0  0  0
   36.0709   16.4088   36.9336 O   0  0  0  0  0  0  0  0  0  0  0  0
   31.3550   18.1343   35.1454 O   0  0  0  0  0  0  0  0  0  0  0  0
   35.5533   15.4049   39.1783 O   0  0  0  0  0  0  0  0  0  0  0  0
   34.4239   17.3415   37.1625 C   0  0  0  0  0  0  0  0  0  0  0  0
   34.4568   18.9542   36.5585 C   0  0  0  0  0  0  0  0  0  0  0  0
   36.3369   18.9468   36.9122 O   0  0  0  0  0  0  0  0  0  0  0  0
   31.3213   16.6444   37.1389 O   0  0  0  0  0  0  0  0  0  0  0  0
  2  1  1  0
  5  4  1  0
  6  1  1  0
  6  3  1  0
  9  7  1  0
  9  8  1  0
 11  5  1  0
 12  2  1  0
 13  9  1  0
 14  1  1  0
 15  9  1  0
 16  2  1  0
 16 13  1  0
 17  6  1  0
 17 10  1  0
 17 16  1  0
 18  5  1  0
 18 17  1  0
 19  2  1  0
M  RAD  2   7   2   9   2
M  END
>  <ID>  (1) 
conformer_0

$$$$
