
     RDKit          3D

 18 17  0  0  0  0  0  0  0  0999 V2000
   32.9227   17.3367   37.0886 C   0  0  0  0  0  0  0  0  0  0  0  0
   32.1181   18.2186   36.4292 C   0  0  0  0  0  0  0  0  0  0  0  0
   33.6103   20.6046   35.7201 O   0  0  0  0  0  0  0  0  0  0  0  0
   33.2562   19.2806   36.3793 C   0  0  0  0  0  0  0  0  0  0  0  0
   37.4966   19.6893   35.6716 P   0  0  0  0  0  0  0  0  0  0  0  0
   36.2446   19.5478   36.7093 O   0  0  0  0  0  0  0  0  0  0  0  0
   37.9537   20.9392   35.4707 O   0  0  0  0  0  0  0  0  0  0  0  0
   35.9927   14.9744   38.2716 P   0  0  0  0  0  0  0  0  0  0  0  0
   35.0337   14.7934   39.2871 O   0  0  0  0  0  0  0  0  0  0  0  0
   36.4246   13.9997   37.4636 O   0  0  0  0  0  0  0  0  0  0  0  0
   37.0648   18.7943   34.5896 O   0  0  0  0  0  0  0  0  0  0  0  0
   32.0354   18.1842   34.9383 O   0  0  0  0  0  0  0  0  0  0  0  0
   31.4152   16.7202   37.4418 O   0  0  0  0  0  0  0  0  0  0  0  0
   38.6655   18.7837   36.3458 O   0  0  0  0  0  0  0  0  0  0  0  0
   37.1092   15.7854   38.8191 O   0  0  0  0  0  0  0  0  0  0  0  0
   35.1403   16.0762   37.4028 O   0  0  0  0  0  0  0  0  0  0  0  0
   34.5323   17.0582   37.4192 C   0  0  0  0  0  0  0  0  0  0  0  0
   34.7463   18.8833   36.5727 C   0  0  0  0  0  0  0  0  0  0  0  0
  2  1  1  0
  4  2  1  0
  4  3  1  0
  7  5  1  0
  9  8  1  0
 10  8  1  0
 11  5  1  0
 12  2  1  0
 13  1  1  0
 14  5  1  0
 15  8  1  0
 17  1  1  0
 17 10  1  0
 17 16  1  0
 18  4  1  0
 18  6  1  0
 18 11  1  0
M  END
>  <ID>  (1) 
conformer_0

$$$$
