
     RDKit          3D

 19 18  0  0  0  0  0  0  0  0999 V2000
   32.9003   19.0993   36.2134 C   0  0  0  0  0  0  0  0  0  0  0  0
   31.8356   18.0138   36.5442 C   0  0  0  0  0  0  0  0  0  0  0  0
   37.8551   20.5095   35.8817 O   0  0  0  0  0  0  0  0  0  0  0  0
   37.4323   19.2151   35.8336 P   0  0  0  0  0  0  0  0  0  0  0  0
   32.7311   17.1851   37.2285 C   0  0  0  0  0  0  0  0  0  0  0  0
   33.8873   20.3631   35.6222 O   0  0  0  0  0  0  0  0  0  0  0  0
   36.5723   15.9297   37.9920 P   0  0  0  0  0  0  0  0  0  0  0  0
   37.6978   16.6417   38.5144 O   0  0  0  0  0  0  0  0  0  0  0  0
   31.8433   18.3040   34.9244 O   0  0  0  0  0  0  0  0  0  0  0  0
   35.6904   16.4663   36.9681 O   0  0  0  0  0  0  0  0  0  0  0  0
   37.0321   18.3780   34.7083 O   0  0  0  0  0  0  0  0  0  0  0  0
   36.6997   14.4535   37.7836 O   0  0  0  0  0  0  0  0  0  0  0  0
   33.0374   16.1455   38.5696 O   0  0  0  0  0  0  0  0  0  0  0  0
   38.4843   18.4792   36.7121 O   0  0  0  0  0  0  0  0  0  0  0  0
   34.3000   18.9561   36.5305 C   0  0  0  0  0  0  0  0  0  0  0  0
   35.8397   15.7248   39.2024 O   0  0  0  0  0  0  0  0  0  0  0  0
   36.0028   18.9476   36.4601 O   0  0  0  0  0  0  0  0  0  0  0  0
   31.0921   16.8189   37.2401 O   0  0  0  0  0  0  0  0  0  0  0  0
   34.3020   17.1104   37.2443 C   0  0  0  0  0  0  0  0  0  0  0  0
  2  1  1  0
  4  3  1  0
  5  2  1  0
  6  1  1  0
  8  7  1  0
  9  2  1  0
 10  7  1  0
 11  4  1  0
 13  5  1  0
 14  4  1  0
 15  1  1  0
 15 11  1  0
 16  7  1  0
 17 15  1  0
 18  2  1  0
 19  5  1  0
 19 10  1  0
 19 12  1  0
M  END
>  <ID>  (1) 
conformer_0

$$$$
