
     RDKit          3D

 19 19  0  0  0  0  0  0  0  0999 V2000
   32.2433   18.3315   36.2710 C   0  0  0  0  0  0  0  0  0  0  0  0
   33.2473   19.3134   36.2609 C   0  0  0  0  0  0  0  0  0  0  0  0
   34.8740   17.1408   37.3373 C   0  0  0  0  0  0  0  0  0  0  0  0
   33.5129   20.7810   35.9864 O   0  0  0  0  0  0  0  0  0  0  0  0
   37.5151   19.3440   35.7311 P   0  0  0  0  0  0  0  0  0  0  0  0
   38.0099   20.5113   35.8441 O   0  0  0  0  0  0  0  0  0  0  0  0
   36.7679   15.5196   38.2775 P   0  0  0  0  0  0  0  0  0  0  0  0
   35.9993   18.9708   36.5142 O   0  0  0  0  0  0  0  0  0  0  0  0
   37.6399   16.4945   38.8915 O   0  0  0  0  0  0  0  0  0  0  0  0
   37.4158   14.5429   37.5827 O   0  0  0  0  0  0  0  0  0  0  0  0
   31.0304   17.1231   36.8663 O   0  0  0  0  0  0  0  0  0  0  0  0
   31.7262   18.3568   34.9215 O   0  0  0  0  0  0  0  0  0  0  0  0
   35.7928   16.3469   37.1911 O   0  0  0  0  0  0  0  0  0  0  0  0
   35.7364   15.0535   39.2046 O   0  0  0  0  0  0  0  0  0  0  0  0
   34.7717   18.7469   36.5184 C   0  0  0  0  0  0  0  0  0  0  0  0
   38.4703   18.5200   36.5829 O   0  0  0  0  0  0  0  0  0  0  0  0
   36.7828   18.9459   34.6196 O   0  0  0  0  0  0  0  0  0  0  0  0
   33.0978   17.4881   37.2569 C   0  0  0  0  0  0  0  0  0  0  0  0
   32.8669   16.3224   38.0893 O   0  0  0  0  0  0  0  0  0  0  0  0
  2  1  1  0
  4  2  1  0
  6  5  1  0
  9  7  1  0
 10  3  1  0
 10  7  1  0
 11  1  1  0
 12  1  1  0
 13  3  1  0
 14  7  1  0
 15  2  1  0
 15  3  1  0
 15  8  1  0
 16  5  1  0
 17  5  1  0
 17 15  1  0
 18  1  1  0
 18  3  1  0
 19 18  1  0
M  END
>  <ID>  (1) 
conformer_0

$$$$
