
     RDKit          3D

 19 18  0  0  0  0  0  0  0  0999 V2000
   34.3115   17.0653   36.9043 C   0  0  0  0  0  0  0  0  0  0  0  0
   32.2915   18.0821   36.4152 C   0  0  0  0  0  0  0  0  0  0  0  0
   32.3451   17.2683   37.4112 C   0  0  0  0  0  0  0  0  0  0  0  0
   37.9768   20.6894   35.8614 O   0  0  0  0  0  0  0  0  0  0  0  0
   37.5182   19.4348   36.0563 P   0  0  0  0  0  0  0  0  0  0  0  0
   36.1157   19.2885   36.6849 O   0  0  0  0  0  0  0  0  0  0  0  0
   36.2963   15.4302   37.9277 P   0  0  0  0  0  0  0  0  0  0  0  0
   31.9194   18.7894   35.0126 O   0  0  0  0  0  0  0  0  0  0  0  0
   36.0387   14.0648   37.5697 O   0  0  0  0  0  0  0  0  0  0  0  0
   35.3075   15.5203   39.1529 O   0  0  0  0  0  0  0  0  0  0  0  0
   33.6949   20.3942   35.7025 O   0  0  0  0  0  0  0  0  0  0  0  0
   38.4450   18.2964   36.9242 O   0  0  0  0  0  0  0  0  0  0  0  0
   32.4666   15.9103   37.8935 O   0  0  0  0  0  0  0  0  0  0  0  0
   37.1562   18.8880   34.7541 O   0  0  0  0  0  0  0  0  0  0  0  0
   34.9138   18.5371   36.6480 C   0  0  0  0  0  0  0  0  0  0  0  0
   30.8429   17.6923   36.9953 O   0  0  0  0  0  0  0  0  0  0  0  0
   37.4636   16.1991   38.3711 O   0  0  0  0  0  0  0  0  0  0  0  0
   35.4910   16.1844   37.2125 O   0  0  0  0  0  0  0  0  0  0  0  0
   33.4660   19.1835   36.3369 C   0  0  0  0  0  0  0  0  0  0  0  0
  3  2  1  0
  5  4  1  0
  8  2  1  0
  9  1  1  0
 10  7  1  0
 12  5  1  0
 13  3  1  0
 14  5  1  0
 15  1  1  0
 15  6  1  0
 15 14  1  0
 16  2  1  0
 17  7  1  0
 18  1  1  0
 18  7  1  0
 19  2  1  0
 19 11  1  0
 19 15  1  0
M  END
>  <ID>  (1) 
conformer_0

$$$$
