
     RDKit          3D

 19 18  0  0  0  0  0  0  0  0999 V2000
   32.4867   18.4856   36.1340 C   0  0  0  0  0  0  0  0  0  0  0  0
   34.0916   19.1049   36.2989 C   0  0  0  0  0  0  0  0  0  0  0  0
   33.5331   20.3788   35.7978 O   0  0  0  0  0  0  0  0  0  0  0  0
   38.0176   20.4926   35.9690 O   0  0  0  0  0  0  0  0  0  0  0  0
   37.4944   19.2253   36.1167 P   0  0  0  0  0  0  0  0  0  0  0  0
   32.4600   17.5248   36.9507 C   0  0  0  0  0  0  0  0  0  0  0  0
   35.9795   15.3612   39.2177 O   0  0  0  0  0  0  0  0  0  0  0  0
   36.1717   19.0988   36.6578 O   0  0  0  0  0  0  0  0  0  0  0  0
   36.4739   14.5010   37.1671 O   0  0  0  0  0  0  0  0  0  0  0  0
   36.6964   15.7862   37.8957 P   0  0  0  0  0  0  0  0  0  0  0  0
   32.5309   17.5106   34.9196 O   0  0  0  0  0  0  0  0  0  0  0  0
   37.6546   16.4085   38.3437 O   0  0  0  0  0  0  0  0  0  0  0  0
   31.2345   17.3488   37.6996 O   0  0  0  0  0  0  0  0  0  0  0  0
   34.9153   17.9440   36.8026 C   0  0  0  0  0  0  0  0  0  0  0  0
   33.2592   16.2017   38.7963 O   0  0  0  0  0  0  0  0  0  0  0  0
   36.9868   18.7739   34.8297 O   0  0  0  0  0  0  0  0  0  0  0  0
   35.6224   16.5291   37.3143 O   0  0  0  0  0  0  0  0  0  0  0  0
   33.7337   16.9043   37.5562 C   0  0  0  0  0  0  0  0  0  0  0  0
   38.5653   18.2822   36.9158 O   0  0  0  0  0  0  0  0  0  0  0  0
  2  1  1  0
  3  2  1  0
  5  4  1  0
  6  1  1  0
  8  5  1  0
 10  7  1  0
 11  1  1  0
 12 10  1  0
 13  6  1  0
 14  2  1  0
 14  8  1  0
 16 14  1  0
 17 10  1  0
 17 14  1  0
 18  6  1  0
 18  9  1  0
 18 15  1  0
 19  5  1  0
M  END
>  <ID>  (1) 
conformer_0

$$$$
