
     RDKit          3D

 19 19  0  0  0  0  0  0  0  0999 V2000
   32.1342   18.3612   36.2261 C   0  0  0  0  0  0  0  0  0  0  0  0
   32.7005   17.5704   37.1402 C   0  0  0  0  0  0  0  0  0  0  0  0
   37.8850   20.5073   35.8615 O   0  0  0  0  0  0  0  0  0  0  0  0
   34.3343   17.3012   37.4779 C   0  0  0  0  0  0  0  0  0  0  0  0
   33.7073   20.7953   35.9287 O   0  0  0  0  0  0  0  0  0  0  0  0
   37.4954   19.2216   35.5954 P   0  0  0  0  0  0  0  0  0  0  0  0
   36.5517   15.5526   38.0814 P   0  0  0  0  0  0  0  0  0  0  0  0
   35.8100   15.2551   39.3356 O   0  0  0  0  0  0  0  0  0  0  0  0
   35.4657   16.5082   37.5040 O   0  0  0  0  0  0  0  0  0  0  0  0
   36.0022   18.9829   36.3304 O   0  0  0  0  0  0  0  0  0  0  0  0
   30.7830   17.5707   36.8577 O   0  0  0  0  0  0  0  0  0  0  0  0
   32.5590   17.5560   34.9266 O   0  0  0  0  0  0  0  0  0  0  0  0
   37.9947   16.1524   38.2001 O   0  0  0  0  0  0  0  0  0  0  0  0
   34.7538   18.8196   36.6811 C   0  0  0  0  0  0  0  0  0  0  0  0
   38.4740   18.6134   36.5319 O   0  0  0  0  0  0  0  0  0  0  0  0
   37.1910   18.4273   34.5221 O   0  0  0  0  0  0  0  0  0  0  0  0
   36.3109   14.4949   37.2968 O   0  0  0  0  0  0  0  0  0  0  0  0
   32.3203   16.3980   38.1345 O   0  0  0  0  0  0  0  0  0  0  0  0
   33.4309   19.5709   36.3961 C   0  0  0  0  0  0  0  0  0  0  0  0
  2  1  1  0
  4  2  1  0
  6  3  1  0
  8  7  1  0
  9  4  1  0
 11  1  1  0
 12  1  1  0
 13  7  1  0
 14  4  1  0
 14 10  1  0
 15  6  1  0
 16  6  1  0
 16 14  1  0
 17  4  1  0
 17  7  1  0
 18  2  1  0
 19  1  1  0
 19  5  1  0
 19 14  1  0
M  END
>  <ID>  (1) 
conformer_0

$$$$
