
     RDKit          3D

 19 18  0  0  0  0  0  0  0  0999 V2000
   33.1987   17.1847   37.4188 C   0  0  0  0  0  0  0  0  0  0  0  0
   31.7157   17.9889   36.3586 C   0  0  0  0  0  0  0  0  0  0  0  0
   37.6975   19.1873   36.0549 P   0  0  0  0  0  0  0  0  0  0  0  0
   33.6134   20.5206   35.7350 O   0  0  0  0  0  0  0  0  0  0  0  0
   37.9093   20.5138   35.6192 O   0  0  0  0  0  0  0  0  0  0  0  0
   32.5258   18.8344   36.2115 C   0  0  0  0  0  0  0  0  0  0  0  0
   35.6204   15.1463   39.1597 O   0  0  0  0  0  0  0  0  0  0  0  0
   36.4730   15.6121   38.0537 P   0  0  0  0  0  0  0  0  0  0  0  0
   36.6551   14.2211   37.4684 O   0  0  0  0  0  0  0  0  0  0  0  0
   36.1815   19.1944   36.6216 O   0  0  0  0  0  0  0  0  0  0  0  0
   32.1701   16.3198   37.9366 O   0  0  0  0  0  0  0  0  0  0  0  0
   38.7394   18.5186   36.9628 O   0  0  0  0  0  0  0  0  0  0  0  0
   37.6236   18.2309   35.0378 O   0  0  0  0  0  0  0  0  0  0  0  0
   31.7945   18.6368   34.8712 O   0  0  0  0  0  0  0  0  0  0  0  0
   35.6632   16.7335   36.9488 O   0  0  0  0  0  0  0  0  0  0  0  0
   34.0837   19.2457   36.4337 C   0  0  0  0  0  0  0  0  0  0  0  0
   37.4436   16.1335   38.6878 O   0  0  0  0  0  0  0  0  0  0  0  0
   34.7259   17.6505   37.1084 C   0  0  0  0  0  0  0  0  0  0  0  0
   30.5864   16.9475   36.6147 O   0  0  0  0  0  0  0  0  0  0  0  0
  2  1  1  0
  5  3  1  0
  6  2  1  0
  8  7  1  0
  9  8  1  0
 11  1  1  0
 12  3  1  0
 13  3  1  0
 14  6  1  0
 16  4  1  0
 16  6  1  0
 16 10  2  0
 17  8  1  0
 18  1  1  0
 18  9  1  0
 18 13  1  0
 18 15  1  0
 19  2  1  0
M  END
>  <ID>  (1) 
conformer_0

$$$$
