
     RDKit          3D

 19 18  0  0  0  0  0  0  0  0999 V2000
   34.3895   19.1994   36.3978 C   0  0  0  0  0  0  0  0  0  0  0  0
   32.7001   18.8664   36.2547 C   0  0  0  0  0  0  0  0  0  0  0  0
   37.8970   20.4849   35.9904 O   0  0  0  0  0  0  0  0  0  0  0  0
   33.8257   20.4657   35.5092 O   0  0  0  0  0  0  0  0  0  0  0  0
   32.1004   17.6897   36.7880 C   0  0  0  0  0  0  0  0  0  0  0  0
   37.4836   19.0568   36.0558 P   0  0  0  0  0  0  0  0  0  0  0  0
   36.0362   18.9652   36.4567 O   0  0  0  0  0  0  0  0  0  0  0  0
   36.6436   14.3524   37.4036 O   0  0  0  0  0  0  0  0  0  0  0  0
   36.6097   15.7323   37.9899 P   0  0  0  0  0  0  0  0  0  0  0  0
   35.8128   15.4382   39.2773 O   0  0  0  0  0  0  0  0  0  0  0  0
   33.3111   16.1878   38.6597 O   0  0  0  0  0  0  0  0  0  0  0  0
   33.2447   16.9580   37.4129 C   0  0  0  0  0  0  0  0  0  0  0  0
   32.3366   18.3787   34.9076 O   0  0  0  0  0  0  0  0  0  0  0  0
   31.0653   16.8701   37.1317 O   0  0  0  0  0  0  0  0  0  0  0  0
   37.5623   16.5311   38.6681 O   0  0  0  0  0  0  0  0  0  0  0  0
   37.4662   18.5566   34.7234 O   0  0  0  0  0  0  0  0  0  0  0  0
   35.8538   16.4276   37.1838 O   0  0  0  0  0  0  0  0  0  0  0  0
   34.8159   17.6388   37.1625 C   0  0  0  0  0  0  0  0  0  0  0  0
   38.3402   18.5076   37.1542 O   0  0  0  0  0  0  0  0  0  0  0  0
  2  1  1  0
  4  1  1  0
  5  2  1  0
  6  3  1  0
  7  1  1  0
 10  9  1  0
 12  5  1  0
 12 11  1  0
 13  2  1  0
 14  5  1  0
 15  9  1  0
 16  1  1  0
 16  6  1  0
 17  9  1  0
 18  8  1  0
 18 12  1  0
 18 17  1  0
 19  6  1  0
M  END
>  <ID>  (1) 
conformer_0

$$$$
