
     RDKit          3D

 19 19  0  0  0  0  0  0  0  0999 V2000
   34.3287   17.1406   37.1313 C   0  0  0  0  0  0  0  0  0  0  0  0
   32.1702   18.2865   36.5239 C   0  0  0  0  0  0  0  0  0  0  0  0
   32.5051   17.3633   37.1366 C   0  0  0  0  0  0  0  0  0  0  0  0
   37.9452   20.4424   35.8408 O   0  0  0  0  0  0  0  0  0  0  0  0
   33.6998   20.4557   35.7801 O   0  0  0  0  0  0  0  0  0  0  0  0
   37.6306   19.1659   35.7118 P   0  0  0  0  0  0  0  0  0  0  0  0
   31.8428   18.7051   34.9874 O   0  0  0  0  0  0  0  0  0  0  0  0
   35.6513   15.3912   39.2906 O   0  0  0  0  0  0  0  0  0  0  0  0
   36.0432   18.8611   36.0254 O   0  0  0  0  0  0  0  0  0  0  0  0
   36.3902   15.6574   37.9362 P   0  0  0  0  0  0  0  0  0  0  0  0
   30.8554   17.0557   36.8984 O   0  0  0  0  0  0  0  0  0  0  0  0
   36.3325   14.5650   37.3357 O   0  0  0  0  0  0  0  0  0  0  0  0
   38.6168   18.3689   36.6042 O   0  0  0  0  0  0  0  0  0  0  0  0
   34.9105   18.6363   36.4084 C   0  0  0  0  0  0  0  0  0  0  0  0
   34.8887   16.3610   37.3719 O   0  0  0  0  0  0  0  0  0  0  0  0
   37.4926   16.3776   38.4740 O   0  0  0  0  0  0  0  0  0  0  0  0
   32.3819   16.1444   38.2114 O   0  0  0  0  0  0  0  0  0  0  0  0
   37.2001   18.6424   34.4634 O   0  0  0  0  0  0  0  0  0  0  0  0
   33.4396   19.2571   36.3277 C   0  0  0  0  0  0  0  0  0  0  0  0
  3  1  1  0
  3  2  1  0
  6  4  1  0
  7  2  1  0
 10  8  1  0
 11  3  1  0
 12  1  1  0
 12 10  1  0
 13  6  1  0
 14  1  1  0
 14  9  1  0
 15  1  1  0
 16 10  1  0
 17  3  1  0
 18  6  1  0
 18 14  1  0
 19  2  1  0
 19  5  1  0
 19 14  1  0
M  END
>  <ID>  (1) 
conformer_0

$$$$
