
     RDKit          3D

 19 18  0  0  0  0  0  0  0  0999 V2000
   32.2015   17.7805   36.8399 C   0  0  0  0  0  0  0  0  0  0  0  0
   33.8686   17.0727   36.8444 C   0  0  0  0  0  0  0  0  0  0  0  0
   37.9129   20.3445   35.7910 O   0  0  0  0  0  0  0  0  0  0  0  0
   33.6196   20.5640   35.7491 O   0  0  0  0  0  0  0  0  0  0  0  0
   37.4308   19.2073   35.9488 P   0  0  0  0  0  0  0  0  0  0  0  0
   35.5974   15.1542   39.1993 O   0  0  0  0  0  0  0  0  0  0  0  0
   36.1436   18.9933   36.7554 O   0  0  0  0  0  0  0  0  0  0  0  0
   36.0029   14.2715   37.3135 O   0  0  0  0  0  0  0  0  0  0  0  0
   32.4825   18.7074   36.1188 C   0  0  0  0  0  0  0  0  0  0  0  0
   35.9600   15.4978   38.0828 P   0  0  0  0  0  5  0  0  0  0  0  0
   32.0258   18.1619   34.8532 O   0  0  0  0  0  0  0  0  0  0  0  0
   37.4408   16.3718   38.4084 O   0  0  0  0  0  0  0  0  0  0  0  0
   36.8275   18.5762   34.6443 O   0  0  0  0  0  0  0  0  0  0  0  0
   38.4996   18.3129   36.5927 O   0  0  0  0  0  0  0  0  0  0  0  0
   31.3428   16.8951   36.8003 O   0  0  0  0  0  0  0  0  0  0  0  0
   35.7118   16.5664   37.1158 O   0  0  0  0  0  0  0  0  0  0  0  0
   33.8257   19.4660   36.3820 C   0  0  0  0  0  0  0  0  0  0  0  0
   34.8891   18.0604   36.4785 C   0  0  0  0  0  0  0  0  0  0  0  0
   33.7038   16.0049   38.6193 O   0  0  0  0  0  0  0  0  0  0  0  0
  2  1  1  0
  5  3  1  0
  7  5  1  0
  8  2  1  0
  9  1  1  0
 10  6  1  0
 10  8  1  0
 11  9  1  0
 12 10  1  0
 14  5  1  0
 15  1  1  0
 17  4  1  0
 17  9  1  0
 18  2  1  0
 18  7  1  0
 18 13  1  0
 18 16  1  0
 19 10  1  0
M  END
>  <ID>  (1) 
conformer_0

$$$$
