
     RDKit          3D

 18 18  0  0  0  0  0  0  0  0999 V2000
   31.9720   18.1263   36.8612 C   0  0  0  0  0  0  0  0  0  0  0  0
   33.2644   19.1285   36.1431 C   0  0  0  0  0  0  0  0  0  0  0  0
   37.9056   20.5243   35.6159 O   0  0  0  0  0  0  0  0  0  0  0  0
   37.4609   19.3045   35.6835 P   0  0  0  0  0  0  0  0  0  0  0  0
   34.3149   20.1649   35.2868 O   0  0  0  0  0  0  0  0  0  0  0  0
   32.8180   17.2535   37.1858 C   0  0  0  0  0  0  0  0  0  0  0  0
   36.5018   15.7933   37.8357 P   0  0  0  0  0  0  0  0  0  0  0  0
   36.3401   19.0015   36.4355 O   0  0  0  0  0  0  0  0  0  0  0  0
   35.4626   16.6815   37.0332 O   0  0  0  0  0  0  0  0  0  0  0  0
   35.8221   15.1517   38.7624 O   0  0  0  0  0  0  0  0  0  0  0  0
   32.2512   18.2744   34.9880 O   0  0  0  0  0  0  0  0  0  0  0  0
   31.3837   16.6943   37.7175 O   0  0  0  0  0  0  0  0  0  0  0  0
   38.5570   18.4583   36.4869 O   0  0  0  0  0  0  0  0  0  0  0  0
   37.0954   18.4812   34.4571 O   0  0  0  0  0  0  0  0  0  0  0  0
   34.7192   18.8970   36.4419 C   0  0  0  0  0  0  0  0  0  0  0  0
   37.4725   16.5536   38.3959 O   0  0  0  0  0  0  0  0  0  0  0  0
   34.5344   17.1810   36.8659 C   0  0  0  0  0  0  0  0  0  0  0  0
   36.6931   15.1146   36.6508 O   0  0  0  0  0  0  0  0  0  0  0  0
  2  1  1  0
  4  3  1  0
  5  2  1  0
  6  1  1  0
  8  4  1  0
 10  7  1  0
 11  2  1  0
 12  6  1  0
 13  4  1  0
 15  2  1  0
 15  8  1  0
 15 14  1  0
 16  7  1  0
 17  6  1  0
 17  9  1  0
 17 15  1  0
 18  7  1  0
 18 17  1  0
M  END
>  <ID>  (1) 
conformer_0

$$$$
