
     RDKit          3D

 19 18  0  0  0  0  0  0  0  0999 V2000
   34.4093   19.3023   36.3033 C   0  0  0  0  0  0  0  0  0  0  0  0
   33.0600   19.1576   36.1609 C   0  0  0  0  0  0  0  0  0  0  0  0
   34.3283   17.2830   37.1335 C   0  0  0  0  0  0  0  0  0  0  0  0
   37.9238   20.3677   35.7510 O   0  0  0  0  0  0  0  0  0  0  0  0
   37.4914   18.9611   35.7687 P   0  0  0  0  0  0  0  0  0  0  0  0
   36.3542   15.8318   38.1762 P   0  0  0  0  0  0  0  0  0  0  0  0
   37.3996   16.4788   38.8217 O   0  0  0  0  0  0  0  0  0  0  0  0
   36.5557   14.5664   37.3904 O   0  0  0  0  0  0  0  0  0  0  0  0
   35.6989   18.9862   36.2788 O   0  0  0  0  0  0  0  0  0  0  0  0
   33.8979   20.7004   35.6638 O   0  0  0  0  0  0  0  0  0  0  0  0
   32.3532   17.9733   34.8767 O   0  0  0  0  0  0  0  0  0  0  0  0
   38.1907   18.2012   36.7806 O   0  0  0  0  0  0  0  0  0  0  0  0
   30.8692   17.4716   37.0383 O   0  0  0  0  0  0  0  0  0  0  0  0
   37.3253   18.2462   34.5862 O   0  0  0  0  0  0  0  0  0  0  0  0
   32.7239   16.3129   38.4556 O   0  0  0  0  0  0  0  0  0  0  0  0
   35.5097   15.3989   39.3789 O   0  0  0  0  0  0  0  0  0  0  0  0
   35.4180   16.4823   37.4059 O   0  0  0  0  0  0  0  0  0  0  0  0
   32.9704   17.2910   37.3778 C   0  0  0  0  0  0  0  0  0  0  0  0
   32.0392   18.0072   36.5569 C   0  0  0  0  0  0  0  0  0  0  0  0
  2  1  1  0
  5  4  1  0
  7  6  1  0
  8  3  1  0
  9  1  1  0
 10  1  1  0
 12  5  1  0
 14  1  1  0
 14  5  1  0
 16  6  1  0
 17  3  1  0
 17  6  1  0
 18  3  1  0
 18 15  1  0
 19  2  1  0
 19 11  1  0
 19 13  1  0
 19 18  1  0
M  END
>  <ID>  (1) 
conformer_0

$$$$
