
     RDKit          3D

 18 18  0  0  0  0  0  0  0  0999 V2000
   34.5470   18.9912   36.4895 C   0  0  0  0  0  0  0  0  0  0  0  0
   32.8144   17.3803   37.4373 C   0  0  0  0  0  0  0  0  0  0  0  0
   37.8333   20.5708   35.8215 O   0  0  0  0  0  0  0  0  0  0  0  0
   33.6940   20.7120   35.7436 O   0  0  0  0  0  0  0  0  0  0  0  0
   37.1133   19.4029   35.8956 P   0  0  0  0  0  0  0  0  0  0  0  0
   36.4606   18.8593   34.7280 O   0  0  0  0  0  0  0  0  0  0  0  0
   34.5733   17.3081   37.1170 C   0  0  0  0  0  0  0  0  0  0  0  0
   35.9077   15.1420   39.0935 O   0  0  0  0  0  0  0  0  0  0  0  0
   36.7079   15.6852   37.8555 P   0  0  0  0  0  0  0  0  0  0  0  0
   36.7235   14.7106   36.8304 O   0  0  0  0  0  0  0  0  0  0  0  0
   31.1321   17.0788   37.1008 O   0  0  0  0  0  0  0  0  0  0  0  0
   36.0042   19.3392   36.8036 O   0  0  0  0  0  0  0  0  0  0  0  0
   37.7110   16.3218   38.4177 O   0  0  0  0  0  0  0  0  0  0  0  0
   32.2931   17.9639   35.0033 O   0  0  0  0  0  0  0  0  0  0  0  0
   35.7796   16.9557   37.2265 O   0  0  0  0  0  0  0  0  0  0  0  0
   33.1989   19.3826   36.2302 C   0  0  0  0  0  0  0  0  0  0  0  0
   38.3170   18.4808   36.7969 O   0  0  0  0  0  0  0  0  0  0  0  0
   32.1662   18.2062   36.5649 C   0  0  0  0  0  0  0  0  0  0  0  0
  5  3  1  0
  6  1  1  0
  7  1  1  0
  7  2  1  0
  9  8  1  0
 10  7  1  0
 10  9  1  0
 12  1  1  0
 12  5  1  0
 13  9  1  0
 15  7  1  0
 16  1  1  0
 16  4  1  0
 17  5  1  0
 18  2  1  0
 18 11  1  0
 18 14  1  0
 18 16  1  0
M  END
>  <ID>  (1) 
conformer_0

$$$$
