
     RDKit          3D

 19 19  0  0  0  0  0  0  0  0999 V2000
   32.1148   17.8272   36.4310 C   0  0  0  0  0  0  0  0  0  0  0  0
   32.8627   17.3530   37.3439 C   0  0  0  0  0  0  0  0  0  0  0  0
   33.6227   20.5220   35.9030 O   0  0  0  0  0  0  0  0  0  0  0  0
   38.0904   20.4432   35.6923 O   0  0  0  0  0  0  0  0  0  0  0  0
   37.4995   19.4254   35.8867 P   0  0  0  0  0  0  0  0  0  0  0  0
   36.6890   15.7823   38.0839 P   0  0  0  0  0  0  0  0  0  0  0  0
   35.5425   14.9923   39.0827 O   0  0  0  0  0  0  0  0  0  0  0  0
   36.2941   19.1721   36.6732 O   0  0  0  0  0  0  0  0  0  0  0  0
   34.7633   17.4231   37.0886 C   0  0  0  0  0  0  0  0  0  0  0  0
   31.8986   18.2884   34.9219 O   0  0  0  0  0  0  0  0  0  0  0  0
   37.1295   14.9352   37.2085 O   0  0  0  0  0  0  0  0  0  0  0  0
   37.5949   16.5184   38.9274 O   0  0  0  0  0  0  0  0  0  0  0  0
   32.5932   16.2583   38.5093 O   0  0  0  0  0  0  0  0  0  0  0  0
   36.8583   18.7856   34.5934 O   0  0  0  0  0  0  0  0  0  0  0  0
   33.1276   19.0554   36.2449 C   0  0  0  0  0  0  0  0  0  0  0  0
   38.5156   18.1650   37.0733 O   0  0  0  0  0  0  0  0  0  0  0  0
   35.5090   16.6118   37.4226 O   0  0  0  0  0  0  0  0  0  0  0  0
   31.0001   17.1842   37.4221 O   0  0  0  0  0  0  0  0  0  0  0  0
   34.6180   18.9181   36.3967 C   0  0  0  0  0  0  0  0  0  0  0  0
  2  1  1  0
  5  4  1  0
  7  6  1  0
  8  5  1  0
  9  2  1  0
 10  1  1  0
 11  6  1  0
 11  9  1  0
 12  6  1  0
 13  2  1  0
 15  1  1  0
 15  3  1  0
 16  5  1  0
 17  9  1  0
 18  1  1  0
 19  8  1  0
 19  9  1  0
 19 14  1  0
 19 15  1  0
M  END
>  <ID>  (1) 
conformer_0

$$$$
