
     RDKit          3D

 18 18  0  0  0  0  0  0  0  0999 V2000
   33.1128   18.9079   36.3515 C   0  0  0  0  0  0  0  0  0  0  0  0
   34.5308   18.7418   36.2273 C   0  0  0  0  0  0  0  0  0  0  0  0
   37.3177   19.3678   35.7857 P   0  0  0  0  0  0  0  0  0  0  0  0
   36.5511   15.7936   38.0467 P   0  0  0  0  0  0  0  0  0  0  0  0
   38.0719   20.5287   35.6218 O   0  0  0  0  0  0  0  0  0  0  0  0
   33.8295   20.3487   35.6592 O   0  0  0  0  0  0  0  0  0  0  0  0
   34.2822   17.0922   37.0225 C   0  0  0  0  0  0  0  0  0  0  0  0
   36.5316   14.4499   37.6433 O   0  0  0  0  0  0  0  0  0  0  0  0
   31.5285   16.4381   37.3920 O   0  0  0  0  0  0  0  0  0  0  0  0
   37.6524   16.6707   38.4522 O   0  0  0  0  0  0  0  0  0  0  0  0
   36.8247   18.6067   34.8149 O   0  0  0  0  0  0  0  0  0  0  0  0
   32.4984   17.6879   35.0953 O   0  0  0  0  0  0  0  0  0  0  0  0
   38.4085   18.3536   36.7449 O   0  0  0  0  0  0  0  0  0  0  0  0
   31.2822   17.8062   37.6527 C   0  0  0  0  0  0  0  0  0  0  0  0
   32.4632   17.5684   37.0328 C   0  0  0  0  0  0  0  0  0  0  0  0
   35.7678   16.3601   36.9957 O   0  0  0  0  0  0  0  0  0  0  0  0
   36.3666   19.4982   36.5648 O   0  0  0  0  0  0  0  0  0  0  0  0
   35.8028   15.8511   39.3014 O   0  0  0  0  0  0  0  0  0  0  0  0
  2  1  1  0
  5  3  1  0
  6  1  1  0
  7  2  1  0
  8  4  1  0
  8  7  1  0
 10  4  1  0
 11  2  1  0
 12  1  1  0
 13  3  1  0
 14  9  1  0
 15  1  1  0
 15  7  1  0
 15 14  1  0
 16  7  1  0
 17  2  1  0
 17  3  1  0
 18  4  1  0
M  END
>  <ID>  (1) 
conformer_0

$$$$
