
     RDKit          3D

  8  7  0  0  0  0  0  0  0  0999 V2000
  130.4477   53.3132   32.4671 N   0  0  0  0  0  0  0  0  0  0  0  0
  131.7477   52.7132   32.5671 C   0  0  0  0  0  0  0  0  0  0  0  0
  129.4477   52.5132   31.7671 C   0  0  0  0  0  0  0  0  0  0  0  0
  129.4477   51.1132   32.1671 C   0  0  0  0  0  0  0  0  0  0  0  0
  132.8477   53.6132   32.7671 C   0  0  0  0  0  0  0  0  0  0  0  0
  132.9477   54.5132   31.6671 N   0  0  0  0  0  0  0  0  0  0  0  0
  133.7477   53.5132   33.5671 O   0  0  0  0  0  0  0  0  0  0  0  0
  133.7477   55.7132   31.5671 C   0  0  0  0  0  0  0  0  0  0  0  0
  2  1  1  0
  3  1  1  0
  4  3  1  0
  5  2  1  0
  6  5  1  0
  7  5  2  0
  8  6  1  0
M  END
>  <ID>  (1) 
conformer_0

$$$$
