
     RDKit          3D

  8  8  0  0  0  0  0  0  0  0999 V2000
  129.1769   51.9018   31.7622 C   0  0  0  0  0  0  0  0  0  0  0  0
  129.6769   50.8018   32.5622 C   0  0  0  0  0  0  0  0  0  0  0  0
  129.6769   53.2018   31.9622 N   0  0  0  0  0  0  0  0  0  0  0  0
  131.0769   53.0018   32.0622 C   0  0  0  0  0  0  0  0  0  0  0  0
  131.7769   52.2018   32.8622 C   0  0  0  0  0  0  0  0  0  0  0  0
  133.0769   52.5018   33.3622 N   0  0  0  0  0  0  0  0  0  0  0  0
  133.7769   53.7018   32.9622 C   0  0  0  0  0  0  0  0  0  0  0  0
  131.0769   51.0018   32.7622 C   0  0  0  0  0  0  0  0  0  0  0  0
  2  1  1  0
  3  1  1  0
  4  3  1  0
  5  4  1  0
  6  5  1  0
  7  6  1  0
  8  2  1  0
  8  5  1  0
M  END
>  <ID>  (1) 
conformer_0

$$$$
