
     RDKit          3D

  9  9  0  0  0  0  0  0  0  0999 V2000
  129.5100   50.8600   32.6570 C   0  0  0  0  0  0  0  0  0  0  0  0
  128.8100   51.7600   31.7570 C   0  0  0  0  0  0  0  0  0  0  0  0
  129.6100   52.9600   31.9570 N   0  0  0  0  0  0  0  0  0  0  0  0
  131.0100   52.6600   32.1570 C   0  0  0  0  0  0  0  0  0  0  0  0
  131.9100   53.7600   32.1570 C   0  0  0  0  0  0  0  0  0  0  0  0
  131.0100   51.3600   32.8570 C   0  0  0  0  0  0  0  0  0  0  0  0
  133.3100   53.5600   32.5570 C   0  0  0  0  0  0  0  0  0  0  0  0
  134.0099   54.7600   33.0570 C   0  0  0  0  0  0  0  0  0  0  0  0
  133.5099   52.3600   33.3570 O   0  0  0  0  0  0  0  0  0  0  0  0
  2  1  1  0
  3  2  1  0
  4  3  1  0
  5  4  1  0
  6  1  1  0
  6  4  1  0
  7  5  1  0
  8  7  1  0
  9  7  1  0
M  END
>  <ID>  (1) 
conformer_0

$$$$
