
     RDKit          3D

  6  6  0  0  0  0  0  0  0  0999 V2000
  129.6571   50.8956   32.6549 C   0  0  0  0  0  0  0  0  0  0  0  0
  128.9571   51.7956   31.7549 C   0  0  0  0  0  0  0  0  0  0  0  0
  129.6571   53.0956   31.9549 N   0  0  0  0  0  0  0  0  0  0  0  0
  131.0571   52.8956   32.2549 C   0  0  0  0  0  0  0  0  0  0  0  0
  131.5571   53.8956   32.8549 N   0  0  0  0  0  0  0  0  0  0  0  0
  131.1571   51.4956   32.6549 C   0  0  0  0  0  0  0  0  0  0  0  0
  2  1  1  0
  3  2  1  0
  4  3  1  0
  5  4  1  0
  6  1  1  0
  6  4  1  0
M  END
>  <ID>  (1) 
conformer_0

$$$$
