
     RDKit          3D

  8  9  0  0  0  0  0  0  0  0999 V2000
  130.2119   51.1587   32.6489 C   0  0  0  0  0  0  0  0  0  0  0  0
  129.1119   51.6587   31.8489 C   0  0  0  0  0  0  0  0  0  0  0  0
  131.3119   52.1587   32.5489 C   0  0  0  0  0  0  0  0  0  0  0  0
  130.7119   53.4587   32.3489 N   0  0  0  0  0  0  0  0  0  0  0  0
  129.6119   53.0587   31.4489 C   0  0  0  0  0  0  0  0  0  0  0  0
  131.9119   54.1587   31.8489 C   0  0  0  0  0  0  0  0  0  0  0  0
  133.1119   53.7587   32.6489 C   0  0  0  0  0  0  0  0  0  0  0  0
  132.6119   52.2587   33.1489 N   0  0  0  0  0  0  0  0  0  0  0  0
  2  1  1  0
  3  1  1  0
  4  3  1  0
  5  2  1  0
  5  4  1  0
  6  4  1  0
  7  6  1  0
  8  3  1  0
  8  7  1  0
M  END
>  <ID>  (1) 
conformer_0

$$$$
