
     RDKit          3D

 11 12  0  0  0  0  0  0  0  0999 V2000
  129.5100   50.8600   32.6570 C   0  0  0  0  0  0  0  0  0  0  0  0
  128.8100   51.7600   31.7570 C   0  0  0  0  0  0  0  0  0  0  0  0
  129.6100   52.9600   31.7570 N   0  0  0  0  0  0  0  0  0  0  0  0
  131.0100   52.8600   32.0570 C   0  0  0  0  0  0  0  0  0  0  0  0
  131.6100   52.0600   32.8570 C   0  0  0  0  0  0  0  0  0  0  0  0
  132.8100   52.4600   33.3570 N   0  0  0  0  0  0  0  0  0  0  0  0
  131.7100   53.9600   31.7570 C   0  0  0  0  0  0  0  0  0  0  0  0
  133.8100   53.2600   32.9570 C   0  0  0  0  0  0  0  0  0  0  0  0
  133.1100   54.2600   31.9570 C   0  0  0  0  0  0  0  0  0  0  0  0
  135.0100   52.9600   32.8570 O   0  0  0  0  0  0  0  0  0  0  0  0
  130.7100   51.2600   32.9570 N   0  0  0  0  0  0  0  0  0  0  0  0
  2  1  1  0
  3  2  1  0
  4  3  1  0
  5  4  1  0
  6  5  2  0
  7  4  2  0
  8  6  1  0
  9  7  1  0
  9  8  1  0
 10  8  2  0
 11  1  1  0
 11  5  1  0
M  END
>  <ID>  (1) 
conformer_0

$$$$
