
     RDKit          3D

 10 11  0  0  0  0  0  0  0  0999 V2000
  128.8721   51.5584   31.8515 C   0  0  0  0  0  0  0  0  0  0  0  0
  129.7721   50.7584   32.5515 C   0  0  0  0  0  0  0  0  0  0  0  0
  129.5721   52.8584   31.8515 N   0  0  0  0  0  0  0  0  0  0  0  0
  130.8721   52.9584   31.9515 C   0  0  0  0  0  0  0  0  0  0  0  0
  131.6721   52.0584   32.7515 C   0  0  0  0  0  0  0  0  0  0  0  0
  132.5721   52.7584   33.5515 N   0  0  0  0  0  0  0  0  0  0  0  0
  131.7721   53.9584   31.5515 C   0  0  0  0  0  0  0  0  0  0  0  0
  133.7721   53.3584   32.9515 C   0  0  0  0  0  0  0  0  0  0  0  0
  133.1721   54.2584   31.8515 C   0  0  0  0  0  0  0  0  0  0  0  0
  130.9721   50.9584   32.9515 C   0  0  0  0  0  0  0  0  0  0  0  0
  2  1  1  0
  3  1  1  0
  4  3  1  0
  5  4  1  0
  6  5  1  0
  7  4  2  0
  8  6  1  0
  9  7  1  0
  9  8  1  0
 10  2  2  0
 10  5  1  0
M  END
>  <ID>  (1) 
conformer_0

$$$$
