
     RDKit          3D

  9 10  0  0  0  0  0  0  0  0999 V2000
  129.0399   51.9151   31.8486 C   0  0  0  0  0  0  0  0  0  0  0  0
  129.6399   50.8151   32.5486 C   0  0  0  0  0  0  0  0  0  0  0  0
  129.7399   53.1151   32.0486 N   0  0  0  0  0  0  0  0  0  0  0  0
  131.1399   52.8151   32.0486 C   0  0  0  0  0  0  0  0  0  0  0  0
  131.8399   51.9151   32.6486 C   0  0  0  0  0  0  0  0  0  0  0  0
  132.9399   52.2150   33.3486 N   0  0  0  0  0  0  0  0  0  0  0  0
  132.1399   53.9151   31.8486 C   0  0  0  0  0  0  0  0  0  0  0  0
  133.3399   53.5150   32.8486 C   0  0  0  0  0  0  0  0  0  0  0  0
  131.0399   50.7150   32.8486 C   0  0  0  0  0  0  0  0  0  0  0  0
  2  1  1  0
  3  1  1  0
  4  3  1  0
  5  4  1  0
  6  5  1  0
  7  4  1  0
  8  6  1  0
  8  7  1  0
  9  2  2  0
  9  5  1  0
M  END
>  <ID>  (1) 
conformer_0

$$$$
