
     RDKit          3D

 10 11  0  0  0  0  0  0  0  0999 V2000
  129.6571   50.8956   32.6549 C   0  0  0  0  0  0  0  0  0  0  0  0
  128.8571   51.7956   31.8549 C   0  0  0  0  0  0  0  0  0  0  0  0
  129.6571   52.9956   31.8549 N   0  0  0  0  0  0  0  0  0  0  0  0
  130.9571   52.8956   31.9549 C   0  0  0  0  0  0  0  0  0  0  0  0
  131.6571   51.9956   32.6549 C   0  0  0  0  0  0  0  0  0  0  0  0
  132.9571   52.3956   33.2549 N   0  0  0  0  0  0  0  0  0  0  0  0
  133.3571   53.5956   32.7549 C   0  0  0  0  0  0  0  0  0  0  0  0
  133.6571   54.5956   33.2549 O   0  0  0  0  0  0  0  0  0  0  0  0
  131.9571   53.9956   31.8549 C   0  0  0  0  0  0  0  0  0  0  0  0
  130.8571   51.1956   32.9549 N   0  0  0  0  0  0  0  0  0  0  0  0
  2  1  1  0
  3  2  1  0
  4  3  1  0
  5  4  1  0
  6  5  2  0
  7  6  1  0
  8  7  1  0
  9  4  1  0
  9  7  1  0
 10  1  2  0
 10  5  1  0
M  END
>  <ID>  (1) 
conformer_0

$$$$
