
     RDKit          3D

 10 10  0  0  0  0  0  0  0  0999 V2000
  129.6571   50.8956   32.6549 C   0  0  0  0  0  0  0  0  0  0  0  0
  128.8571   51.7956   31.8549 C   0  0  0  0  0  0  0  0  0  0  0  0
  129.5571   53.0956   31.8549 N   0  0  0  0  0  0  0  0  0  0  0  0
  130.8571   52.9956   31.9549 C   0  0  0  0  0  0  0  0  0  0  0  0
  131.7571   52.1956   32.6549 C   0  0  0  0  0  0  0  0  0  0  0  0
  132.9571   52.9956   33.0549 C   0  0  0  0  0  0  0  0  0  0  0  0
  132.9571   54.3956   32.6549 C   0  0  0  0  0  0  0  0  0  0  0  0
  132.6571   54.5956   31.2549 C   0  0  0  0  0  0  0  0  0  0  0  0
  133.1571   55.3956   30.3549 N   0  0  0  0  0  0  0  0  0  0  0  0
  131.3571   53.9956   31.0549 C   0  0  0  0  0  0  0  0  0  0  0  0
  2  1  1  0
  3  2  1  0
  4  3  1  0
  5  4  1  0
  6  5  1  0
  7  6  1  0
  8  7  1  0
  9  8  2  0
 10  4  1  0
 10  8  1  0
M  END
>  <ID>  (1) 
conformer_0

$$$$
