
     RDKit          3D

  8  8  0  0  0  0  0  0  0  0999 V2000
  129.0399   51.9151   31.8486 C   0  0  0  0  0  0  0  0  0  0  0  0
  129.6399   50.8151   32.5486 C   0  0  0  0  0  0  0  0  0  0  0  0
  129.6399   53.2150   32.1486 N   0  0  0  0  0  0  0  0  0  0  0  0
  131.0399   53.0150   32.0486 C   0  0  0  0  0  0  0  0  0  0  0  0
  131.7399   52.1150   32.8486 C   0  0  0  0  0  0  0  0  0  0  0  0
  131.6399   54.0150   31.3486 O   0  0  0  0  0  0  0  0  0  0  0  0
  132.9399   52.5150   33.4486 N   0  0  0  0  0  0  0  0  0  0  0  0
  131.0399   50.9150   32.8486 C   0  0  0  0  0  0  0  0  0  0  0  0
  2  1  1  0
  3  1  1  0
  4  3  1  0
  5  4  1  0
  6  4  2  0
  7  5  1  0
  8  2  1  0
  8  5  1  0
M  END
>  <ID>  (1) 
conformer_0

$$$$
