
     RDKit          3D

 11 14  0  0  0  0  0  0  0  0999 V2000
  129.0399   51.9151   31.8486 C   0  0  0  0  0  0  0  0  0  0  0  0
  129.6399   50.8151   32.5486 C   0  0  0  0  0  0  0  0  0  0  0  0
  129.7399   53.1151   31.9486 N   0  0  0  0  0  0  0  0  0  0  0  0
  131.1399   52.9151   32.1486 C   0  0  0  0  0  0  0  0  0  0  0  0
  131.8399   52.0150   32.8486 C   0  0  0  0  0  0  0  0  0  0  0  0
  132.0399   54.0150   31.7486 C   0  0  0  0  0  0  0  0  0  0  0  0
  133.1399   52.3150   32.9486 N   0  0  0  0  0  0  0  0  0  0  0  0
  133.3399   53.6150   32.5486 C   0  0  0  0  0  0  0  0  0  0  0  0
  132.5399   54.4150   32.9486 N   0  0  0  0  0  0  0  0  0  0  0  0
  131.1399   52.7150   33.4486 N   0  0  0  0  0  0  0  0  0  0  0  0
  128.3399   51.4151   32.7486 O   0  0  0  0  0  0  0  0  0  0  0  0
  2  1  1  0
  3  1  1  0
  4  3  1  0
  5  4  1  0
  6  4  1  0
  7  5  1  0
  8  6  1  0
  8  7  1  0
  9  6  1  0
  9  8  1  0
 10  4  1  0
 10  5  1  0
 11  1  1  0
 11  2  1  0
M  END
>  <ID>  (1) 
conformer_0

$$$$
