
     RDKit          3D

  7  7  0  0  0  0  0  0  0  0999 V2000
  129.3074   52.1052   31.5561 C   0  0  0  0  0  0  0  0  0  0  0  0
  129.9074   51.2052   32.5561 C   0  0  0  0  0  0  0  0  0  0  0  0
  130.0074   53.4052   31.5561 C   0  0  0  0  0  0  0  0  0  0  0  0
  131.0074   53.3052   32.5561 N   0  0  0  0  0  0  0  0  0  0  0  0
  132.0074   52.4052   32.7561 C   0  0  0  0  0  0  0  0  0  0  0  0
  132.8074   52.6052   33.7561 O   0  0  0  0  0  0  0  0  0  0  0  0
  131.3074   51.1052   32.7561 C   0  0  0  0  0  0  0  0  0  0  0  0
  2  1  1  0
  3  1  1  0
  4  3  1  0
  5  4  1  0
  6  5  1  0
  7  2  1  0
  7  5  1  0
M  END
>  <ID>  (1) 
conformer_0

$$$$
