
     RDKit          3D

  7  7  0  0  0  0  0  0  0  0999 V2000
  129.7957   53.4513   31.1935 C   0  0  0  0  0  0  0  0  0  0  0  0
  130.9957   53.4513   31.8935 C   0  0  0  0  0  0  0  0  0  0  0  0
  128.9957   52.2513   31.5935 C   0  0  0  0  0  0  0  0  0  0  0  0
  131.1957   52.4513   32.7935 N   0  0  0  0  0  0  0  0  0  0  0  0
  130.1957   51.4513   32.4935 C   0  0  0  0  0  0  0  0  0  0  0  0
  131.9957   54.2513   31.3935 N   0  0  0  0  0  0  0  0  0  0  0  0
  133.2957   54.2513   32.0935 C   0  0  0  0  0  0  0  0  0  0  0  0
  2  1  1  0
  3  1  1  0
  4  2  2  0
  5  3  1  0
  5  4  1  0
  6  2  1  0
  7  6  1  0
M  END
>  <ID>  (1) 
conformer_0

$$$$
