
     RDKit          3D

 10 11  0  0  0  0  0  0  0  0999 V2000
  129.5382   50.9894   32.5156 C   0  0  0  0  0  0  0  0  0  0  0  0
  128.9382   51.9894   31.6156 C   0  0  0  0  0  0  0  0  0  0  0  0
  129.9382   53.0894   31.7156 N   0  0  0  0  0  0  0  0  0  0  0  0
  131.1382   52.7894   32.0156 C   0  0  0  0  0  0  0  0  0  0  0  0
  132.2382   53.4894   32.7156 C   0  0  0  0  0  0  0  0  0  0  0  0
  133.4382   52.7894   32.9156 C   0  0  0  0  0  0  0  0  0  0  0  0
  130.9382   51.3894   32.7156 C   0  0  0  0  0  0  0  0  0  0  0  0
  132.4382   54.5894   31.7156 N   0  0  0  0  0  0  0  0  0  0  0  0
  133.8382   54.8894   31.6156 C   0  0  0  0  0  0  0  0  0  0  0  0
  134.6382   53.8894   32.3156 C   0  0  0  0  0  0  0  0  0  0  0  0
  2  1  1  0
  3  2  1  0
  4  3  1  0
  5  4  1  0
  6  5  1  0
  7  1  1  0
  7  4  1  0
  8  5  1  0
  9  8  1  0
 10  6  1  0
 10  9  1  0
M  END
>  <ID>  (1) 
conformer_0

$$$$
