
     RDKit          3D

  5  4  0  0  0  0  0  0  0  0999 V2000
  129.0130   51.5124   31.8884 C   0  0  0  0  0  0  0  0  0  0  0  0
  129.8130   52.6124   32.2884 N   0  0  0  0  0  0  0  0  0  0  0  0
  130.7130   53.4124   31.7884 C   0  0  0  0  0  0  0  0  0  0  0  0
  132.1130   53.8124   32.0884 C   0  0  0  0  0  0  0  0  0  0  0  0
  130.3130   53.8124   30.5884 O   0  0  0  0  0  0  0  0  0  0  0  0
  2  1  1  0
  3  2  1  0
  4  3  1  0
  5  3  2  0
M  END
>  <ID>  (1) 
conformer_0

$$$$
