
     RDKit          3D

 11 12  0  0  0  0  0  0  0  0999 V2000
  128.8445   51.7816   31.8879 C   0  0  0  0  0  0  0  0  0  0  0  0
  129.8445   50.9816   32.5879 C   0  0  0  0  0  0  0  0  0  0  0  0
  129.4445   53.0816   31.7879 N   0  0  0  0  0  0  0  0  0  0  0  0
  130.7445   53.1816   31.8879 C   0  0  0  0  0  0  0  0  0  0  0  0
  131.6445   52.3816   32.5879 C   0  0  0  0  0  0  0  0  0  0  0  0
  132.8445   53.0816   32.8879 C   0  0  0  0  0  0  0  0  0  0  0  0
  133.0444   54.1816   31.9879 C   0  0  0  0  0  0  0  0  0  0  0  0
  130.9445   51.3816   32.9879 N   0  0  0  0  0  0  0  0  0  0  0  0
  133.5444   55.3816   32.6879 C   0  0  0  0  0  0  0  0  0  0  0  0
  131.6445   54.1816   31.2879 N   0  0  0  0  0  0  0  0  0  0  0  0
  134.4444   56.2816   32.0879 O   0  0  0  0  0  0  0  0  0  0  0  0
  2  1  1  0
  3  1  1  0
  4  3  2  0
  5  4  1  0
  6  5  1  0
  7  6  1  0
  8  2  1  0
  8  5  1  0
  9  7  1  0
 10  4  1  0
 10  7  1  0
 11  9  1  0
M  END
>  <ID>  (1) 
conformer_0

$$$$
