
     RDKit          3D

 10 11  0  0  0  0  0  0  0  0999 V2000
  129.6571   50.8956   32.6549 C   0  0  0  0  0  0  0  0  0  0  0  0
  128.8571   51.7956   31.8549 C   0  0  0  0  0  0  0  0  0  0  0  0
  129.5571   53.0956   32.0549 N   0  0  0  0  0  0  0  0  0  0  0  0
  130.9571   52.8956   31.9549 C   0  0  0  0  0  0  0  0  0  0  0  0
  131.7571   52.0956   32.8549 C   0  0  0  0  0  0  0  0  0  0  0  0
  132.9571   52.8956   33.1549 C   0  0  0  0  0  0  0  0  0  0  0  0
  133.1571   54.0956   32.3549 C   0  0  0  0  0  0  0  0  0  0  0  0
  131.9571   54.0956   31.4549 C   0  0  0  0  0  0  0  0  0  0  0  0
  130.7571   51.1956   32.9549 N   0  0  0  0  0  0  0  0  0  0  0  0
  133.4571   55.2956   32.9549 N   0  0  0  0  0  0  0  0  0  0  0  0
  2  1  1  0
  3  2  1  0
  4  3  1  0
  5  4  1  0
  6  5  2  0
  7  6  1  0
  8  4  1  0
  8  7  1  0
  9  1  2  0
  9  5  1  0
 10  7  1  0
M  END
>  <ID>  (1) 
conformer_0

$$$$
