
     RDKit          3D

  6  6  0  0  0  0  0  0  0  0999 V2000
  131.2589   53.6263   31.9819 C   0  0  0  0  0  0  0  0  0  0  0  0
  129.9589   53.1263   32.2819 N   0  0  0  0  0  0  0  0  0  0  0  0
  129.5589   51.7263   31.9819 C   0  0  0  0  0  0  0  0  0  0  0  0
  132.2589   52.7263   32.5819 C   0  0  0  0  0  0  0  0  0  0  0  0
  130.5589   50.9263   32.6819 C   0  0  0  0  0  0  0  0  0  0  0  0
  131.7589   51.4263   33.0819 O   0  0  0  0  0  0  0  0  0  0  0  0
  2  1  1  0
  3  2  1  0
  4  1  1  0
  5  3  1  0
  6  4  1  0
  6  5  1  0
M  END
>  <ID>  (1) 
conformer_0

$$$$
