
     RDKit          3D

  9 10  0  0  0  0  0  0  0  0999 V2000
  129.1769   51.9018   31.7622 C   0  0  0  0  0  0  0  0  0  0  0  0
  129.6769   50.9018   32.6623 C   0  0  0  0  0  0  0  0  0  0  0  0
  129.7769   53.2018   31.9622 N   0  0  0  0  0  0  0  0  0  0  0  0
  131.1769   52.9018   32.1623 C   0  0  0  0  0  0  0  0  0  0  0  0
  131.8769   52.0018   32.8623 C   0  0  0  0  0  0  0  0  0  0  0  0
  133.0769   52.4018   33.3623 N   0  0  0  0  0  0  0  0  0  0  0  0
  132.0769   54.0018   31.7623 C   0  0  0  0  0  0  0  0  0  0  0  0
  133.2769   53.7018   32.6623 C   0  0  0  0  0  0  0  0  0  0  0  0
  131.0769   50.8018   32.9622 C   0  0  0  0  0  0  0  0  0  0  0  0
  2  1  1  0
  3  1  1  0
  4  3  1  0
  5  4  1  0
  6  5  1  0
  7  4  1  0
  8  6  1  0
  8  7  1  0
  9  2  1  0
  9  5  1  0
M  END
>  <ID>  (1) 
conformer_0

$$$$
