
     RDKit          3D

  9 10  0  0  0  0  0  0  0  0999 V2000
  128.8445   51.7816   31.8879 C   0  0  0  0  0  0  0  0  0  0  0  0
  129.8445   50.9816   32.5879 C   0  0  0  0  0  0  0  0  0  0  0  0
  129.5444   52.9816   31.7879 N   0  0  0  0  0  0  0  0  0  0  0  0
  130.8445   53.1816   31.7879 C   0  0  0  0  0  0  0  0  0  0  0  0
  131.7444   52.4816   32.6879 C   0  0  0  0  0  0  0  0  0  0  0  0
  133.0444   53.0816   33.0879 C   0  0  0  0  0  0  0  0  0  0  0  0
  131.0444   51.4816   32.8879 N   0  0  0  0  0  0  0  0  0  0  0  0
  131.6445   54.2816   31.3879 C   0  0  0  0  0  0  0  0  0  0  0  0
  132.9445   54.3816   32.0879 C   0  0  0  0  0  0  0  0  0  0  0  0
  2  1  1  0
  3  1  1  0
  4  3  1  0
  5  4  2  0
  6  5  1  0
  7  2  2  0
  7  5  1  0
  8  4  1  0
  9  6  2  0
  9  8  1  0
M  END
>  <ID>  (1) 
conformer_0

$$$$
