
     RDKit          3D

 10 11  0  0  0  0  0  0  0  0999 V2000
  129.6571   50.8956   32.6549 C   0  0  0  0  0  0  0  0  0  0  0  0
  128.8571   51.7956   31.8549 C   0  0  0  0  0  0  0  0  0  0  0  0
  129.6571   52.9956   31.8549 N   0  0  0  0  0  0  0  0  0  0  0  0
  131.0571   52.6956   32.0549 C   0  0  0  0  0  0  0  0  0  0  0  0
  131.9571   53.6956   31.8549 C   0  0  0  0  0  0  0  0  0  0  0  0
  131.1571   51.3956   32.6549 C   0  0  0  0  0  0  0  0  0  0  0  0
  133.1571   53.5956   32.5549 C   0  0  0  0  0  0  0  0  0  0  0  0
  133.8571   54.7956   32.7549 N   0  0  0  0  0  0  0  0  0  0  0  0
  133.5571   55.4956   31.5549 C   0  0  0  0  0  0  0  0  0  0  0  0
  132.5571   54.7956   31.0549 N   0  0  0  0  0  0  0  0  0  0  0  0
  2  1  1  0
  3  2  1  0
  4  3  1  0
  5  4  1  0
  6  1  1  0
  6  4  1  0
  7  5  1  0
  8  7  1  0
  9  8  1  0
 10  5  1  0
 10  9  1  0
M  END
>  <ID>  (1) 
conformer_0

$$$$
