
     RDKit          3D

 11 12  0  0  0  0  0  0  0  0999 V2000
  128.8445   51.7816   31.8879 C   0  0  0  0  0  0  0  0  0  0  0  0
  129.8445   50.9816   32.5879 C   0  0  0  0  0  0  0  0  0  0  0  0
  129.5444   53.0816   31.8879 N   0  0  0  0  0  0  0  0  0  0  0  0
  130.8445   53.1816   31.7879 C   0  0  0  0  0  0  0  0  0  0  0  0
  131.8445   52.3816   32.4879 C   0  0  0  0  0  0  0  0  0  0  0  0
  133.0444   52.8816   33.0879 C   0  0  0  0  0  0  0  0  0  0  0  0
  131.0444   51.3816   32.9879 N   0  0  0  0  0  0  0  0  0  0  0  0
  133.0444   54.2816   32.5879 C   0  0  0  0  0  0  0  0  0  0  0  0
  132.7444   54.6816   31.1879 C   0  0  0  0  0  0  0  0  0  0  0  0
  131.2444   54.2816   30.8879 C   0  0  0  0  0  0  0  0  0  0  0  0
  133.5444   55.3816   33.3879 N   0  0  0  0  0  0  0  0  0  0  0  0
  2  1  1  0
  3  1  1  0
  4  3  1  0
  5  4  1  0
  6  5  1  0
  7  2  1  0
  7  5  1  0
  8  6  1  0
  9  8  1  0
 10  4  1  0
 10  9  1  0
 11  8  1  0
M  END
>  <ID>  (1) 
conformer_0

$$$$
