
     RDKit          3D

  9  9  0  0  0  0  0  0  0  0999 V2000
  128.8445   51.7816   31.8879 C   0  0  0  0  0  0  0  0  0  0  0  0
  129.8445   50.9816   32.5879 C   0  0  0  0  0  0  0  0  0  0  0  0
  129.5444   53.0816   31.8879 N   0  0  0  0  0  0  0  0  0  0  0  0
  130.9444   52.9816   31.9879 C   0  0  0  0  0  0  0  0  0  0  0  0
  131.1444   51.6816   32.6879 C   0  0  0  0  0  0  0  0  0  0  0  0
  131.8444   53.8816   31.8879 C   0  0  0  0  0  0  0  0  0  0  0  0
  133.2444   53.9816   32.3879 C   0  0  0  0  0  0  0  0  0  0  0  0
  133.6444   52.7816   33.1879 C   0  0  0  0  0  0  0  0  0  0  0  0
  133.5444   55.1816   32.9879 N   0  0  0  0  0  0  0  0  0  0  0  0
  2  1  1  0
  3  1  1  0
  4  3  1  0
  5  2  1  0
  5  4  1  0
  6  4  1  0
  7  6  1  0
  8  7  1  0
  9  7  1  0
M  END
>  <ID>  (1) 
conformer_0

$$$$
