
     RDKit          3D

 11 13  0  0  0  0  0  0  0  0999 V2000
  129.0943   52.0970   31.7794 C   0  0  0  0  0  0  0  0  0  0  0  0
  129.4943   50.8970   32.4794 C   0  0  0  0  0  0  0  0  0  0  0  0
  129.9943   53.1970   32.1794 N   0  0  0  0  0  0  0  0  0  0  0  0
  131.2943   52.5970   32.1794 C   0  0  0  0  0  0  0  0  0  0  0  0
  132.4943   53.3970   32.4794 C   0  0  0  0  0  0  0  0  0  0  0  0
  133.5943   52.9970   33.2794 C   0  0  0  0  0  0  0  0  0  0  0  0
  132.5943   54.4970   31.5794 N   0  0  0  0  0  0  0  0  0  0  0  0
  133.9943   54.9970   31.5794 C   0  0  0  0  0  0  0  0  0  0  0  0
  131.0943   51.2970   32.7794 C   0  0  0  0  0  0  0  0  0  0  0  0
  134.5943   53.7970   32.5794 C   0  0  0  0  0  0  0  0  0  0  0  0
  134.4943   55.0970   32.6794 O   0  0  0  0  0  0  0  0  0  0  0  0
  2  1  1  0
  3  1  1  0
  4  3  1  0
  5  4  1  0
  6  5  1  0
  7  5  1  0
  8  7  1  0
  9  2  1  0
  9  4  1  0
 10  6  1  0
 10  8  1  0
 11  8  1  0
 11 10  1  0
M  END
>  <ID>  (1) 
conformer_0

$$$$
