
     RDKit          3D

  7  7  0  0  0  0  0  0  0  0999 V2000
  130.3949   53.4389   31.5653 C   0  0  0  0  0  0  0  0  0  0  0  0
  129.5949   52.4389   31.9653 N   0  0  0  0  0  0  0  0  0  0  0  0
  131.5949   53.5389   32.2653 C   0  0  0  0  0  0  0  0  0  0  0  0
  131.8949   52.3389   32.8653 C   0  0  0  0  0  0  0  0  0  0  0  0
  129.7949   51.2389   32.4653 C   0  0  0  0  0  0  0  0  0  0  0  0
  133.0949   52.3389   33.4653 N   0  0  0  0  0  0  0  0  0  0  0  0
  131.0949   51.2389   32.7653 C   0  0  0  0  0  0  0  0  0  0  0  0
  2  1  2  0
  3  1  1  0
  4  3  2  0
  5  2  1  0
  6  4  1  0
  7  4  1  0
  7  5  2  0
M  END
>  <ID>  (1) 
conformer_0

$$$$
