
     RDKit          3D

 11 12  0  0  0  0  0  0  0  0999 V2000
  128.8445   51.7816   31.8879 C   0  0  0  0  0  0  0  0  0  0  0  0
  129.8445   50.9816   32.5879 C   0  0  0  0  0  0  0  0  0  0  0  0
  129.5444   53.0816   31.7879 N   0  0  0  0  0  0  0  0  0  0  0  0
  130.9444   53.0816   31.8879 C   0  0  0  0  0  0  0  0  0  0  0  0
  131.8444   52.4816   32.6879 C   0  0  0  0  0  0  0  0  0  0  0  0
  133.1444   52.9816   32.9879 C   0  0  0  0  0  0  0  0  0  0  0  0
  133.1444   54.3816   32.4879 C   0  0  0  0  0  0  0  0  0  0  0  0
  132.7444   54.6816   31.0879 C   0  0  0  0  0  0  0  0  0  0  0  0
  131.3445   54.2816   30.9879 C   0  0  0  0  0  0  0  0  0  0  0  0
  131.0444   51.4816   32.9879 N   0  0  0  0  0  0  0  0  0  0  0  0
  133.7444   55.2816   33.1879 O   0  0  0  0  0  0  0  0  0  0  0  0
  2  1  1  0
  3  1  1  0
  4  3  1  0
  5  4  1  0
  6  5  1  0
  7  6  1  0
  8  7  1  0
  9  4  1  0
  9  8  1  0
 10  2  1  0
 10  5  2  0
 11  7  1  0
M  END
>  <ID>  (1) 
conformer_0

$$$$
