
     RDKit          3D

  5  4  0  0  0  0  0  0  0  0999 V2000
  131.2589   53.6263   31.9819 C   0  0  0  0  0  0  0  0  0  0  0  0
  129.9589   53.1263   32.2819 N   0  0  0  0  0  0  0  0  0  0  0  0
  129.3589   51.9263   31.7819 C   0  0  0  0  0  0  0  0  0  0  0  0
  129.3589   50.7263   32.5819 C   0  0  0  0  0  0  0  0  0  0  0  0
  132.3589   52.9263   32.6819 C   0  0  0  0  0  0  0  0  0  0  0  0
  2  1  1  0
  3  2  1  0
  4  3  1  0
  5  1  1  0
M  END
>  <ID>  (1) 
conformer_0

$$$$
