
     RDKit          3D

 10 11  0  0  0  0  0  0  0  0999 V2000
  129.7957   53.4513   31.1935 C   0  0  0  0  0  0  0  0  0  0  0  0
  130.9957   53.4513   31.8935 C   0  0  0  0  0  0  0  0  0  0  0  0
  128.9957   52.2513   31.5935 C   0  0  0  0  0  0  0  0  0  0  0  0
  131.1957   52.4513   32.7935 N   0  0  0  0  0  0  0  0  0  0  0  0
  130.1957   51.4513   32.4935 C   0  0  0  0  0  0  0  0  0  0  0  0
  131.9957   54.2513   31.3935 N   0  0  0  0  0  0  0  0  0  0  0  0
  133.2957   54.3513   31.8935 C   0  0  0  0  0  0  0  0  0  0  0  0
  133.4957   53.3513   32.8935 C   0  0  0  0  0  0  0  0  0  0  0  0
  132.5957   52.2513   32.9935 C   0  0  0  0  0  0  0  0  0  0  0  0
  134.1957   55.0513   31.3935 O   0  0  0  0  0  0  0  0  0  0  0  0
  2  1  1  0
  3  1  1  0
  4  2  1  0
  5  3  1  0
  5  4  1  0
  6  2  2  0
  7  6  1  0
  8  7  1  0
  9  4  1  0
  9  8  1  0
 10  7  2  0
M  END
>  <ID>  (1) 
conformer_0

$$$$
