
     RDKit          3D

 11 12  0  0  0  0  0  0  0  0999 V2000
  128.8085   51.5580   31.7749 C   0  0  0  0  0  0  0  0  0  0  0  0
  129.7085   50.7580   32.5749 C   0  0  0  0  0  0  0  0  0  0  0  0
  129.4085   52.8580   31.8749 N   0  0  0  0  0  0  0  0  0  0  0  0
  130.7085   52.9580   31.8749 C   0  0  0  0  0  0  0  0  0  0  0  0
  131.7085   52.2580   32.6749 C   0  0  0  0  0  0  0  0  0  0  0  0
  132.8085   52.9580   33.0749 C   0  0  0  0  0  0  0  0  0  0  0  0
  132.8085   54.3580   32.5749 C   0  0  0  0  0  0  0  0  0  0  0  0
  132.5085   54.6580   31.1749 C   0  0  0  0  0  0  0  0  0  0  0  0
  131.2085   54.0580   30.9749 C   0  0  0  0  0  0  0  0  0  0  0  0
  130.9085   51.2580   32.9749 N   0  0  0  0  0  0  0  0  0  0  0  0
  133.5085   55.4580   33.2749 N   0  0  0  0  0  0  0  0  0  0  0  0
  2  1  1  0
  3  1  1  0
  4  3  1  0
  5  4  1  0
  6  5  1  0
  7  6  1  0
  8  7  1  0
  9  4  1  0
  9  8  1  0
 10  2  1  0
 10  5  2  0
 11  7  1  0
M  END
>  <ID>  (1) 
conformer_0

$$$$
