
     RDKit          3D

 10 10  0  0  0  0  0  0  0  0999 V2000
  128.8445   51.7816   31.8879 C   0  0  0  0  0  0  0  0  0  0  0  0
  129.8445   50.9816   32.5879 C   0  0  0  0  0  0  0  0  0  0  0  0
  129.5444   52.9816   31.7879 N   0  0  0  0  0  0  0  0  0  0  0  0
  130.7444   53.1816   31.8879 C   0  0  0  0  0  0  0  0  0  0  0  0
  131.7444   52.3816   32.4879 C   0  0  0  0  0  0  0  0  0  0  0  0
  132.9444   53.0816   32.7879 C   0  0  0  0  0  0  0  0  0  0  0  0
  132.9444   54.4816   32.2879 C   0  0  0  0  0  0  0  0  0  0  0  0
  131.0444   51.3816   32.9879 N   0  0  0  0  0  0  0  0  0  0  0  0
  132.8444   54.7816   30.9879 N   0  0  0  0  0  0  0  0  0  0  0  0
  133.3444   55.3816   32.9879 O   0  0  0  0  0  0  0  0  0  0  0  0
  2  1  1  0
  3  1  1  0
  4  3  1  0
  5  4  2  0
  6  5  1  0
  7  6  1  0
  8  2  1  0
  8  5  1  0
  9  7  1  0
 10  7  2  0
M  END
>  <ID>  (1) 
conformer_0

$$$$
