
     RDKit          3D

  9 10  0  0  0  0  0  0  0  0999 V2000
  128.8445   51.7816   31.8879 C   0  0  0  0  0  0  0  0  0  0  0  0
  129.8445   50.9816   32.5879 C   0  0  0  0  0  0  0  0  0  0  0  0
  129.5444   52.9816   31.7879 N   0  0  0  0  0  0  0  0  0  0  0  0
  130.7444   53.1816   31.8879 C   0  0  0  0  0  0  0  0  0  0  0  0
  131.7444   52.4816   32.6879 C   0  0  0  0  0  0  0  0  0  0  0  0
  132.9444   53.1816   32.9879 C   0  0  0  0  0  0  0  0  0  0  0  0
  132.9444   54.2816   31.9879 C   0  0  0  0  0  0  0  0  0  0  0  0
  131.6444   54.1816   31.2879 C   0  0  0  0  0  0  0  0  0  0  0  0
  130.9444   51.3816   32.8879 N   0  0  0  0  0  0  0  0  0  0  0  0
  2  1  1  0
  3  1  1  0
  4  3  1  0
  5  4  1  0
  6  5  1  0
  7  6  1  0
  8  4  1  0
  8  7  1  0
  9  2  2  0
  9  5  1  0
M  END
>  <ID>  (1) 
conformer_0

$$$$
