
     RDKit          3D

  7  7  0  0  0  0  0  0  0  0999 V2000
  129.0943   52.0970   31.7794 C   0  0  0  0  0  0  0  0  0  0  0  0
  129.4943   50.8970   32.5794 C   0  0  0  0  0  0  0  0  0  0  0  0
  129.8943   53.1970   31.9794 N   0  0  0  0  0  0  0  0  0  0  0  0
  131.2943   52.7970   32.2794 C   0  0  0  0  0  0  0  0  0  0  0  0
  131.9943   53.6970   32.9794 N   0  0  0  0  0  0  0  0  0  0  0  0
  128.2943   51.9970   30.7794 O   0  0  0  0  0  0  0  0  0  0  0  0
  131.1943   51.3970   32.6794 C   0  0  0  0  0  0  0  0  0  0  0  0
  2  1  1  0
  3  1  1  0
  4  3  1  0
  5  4  1  0
  6  1  2  0
  7  2  1  0
  7  4  1  0
M  END
>  <ID>  (1) 
conformer_0

$$$$
