
     RDKit          3D

  8  8  0  0  0  0  0  0  0  0999 V2000
  128.8721   51.5584   31.8515 C   0  0  0  0  0  0  0  0  0  0  0  0
  129.8721   50.9584   32.5515 C   0  0  0  0  0  0  0  0  0  0  0  0
  131.0721   51.7584   32.5515 C   0  0  0  0  0  0  0  0  0  0  0  0
  130.6721   53.0584   32.0515 N   0  0  0  0  0  0  0  0  0  0  0  0
  129.4721   52.9584   31.4515 C   0  0  0  0  0  0  0  0  0  0  0  0
  131.7721   53.9584   31.8515 C   0  0  0  0  0  0  0  0  0  0  0  0
  132.2721   54.2584   32.9515 O   0  0  0  0  0  0  0  0  0  0  0  0
  131.7721   54.9584   30.7515 C   0  0  0  0  0  0  0  0  0  0  0  0
  2  1  1  0
  3  2  1  0
  4  3  1  0
  5  1  1  0
  5  4  1  0
  6  4  1  0
  7  6  2  0
  8  6  1  0
M  END
>  <ID>  (1) 
conformer_0

$$$$
