
     RDKit          3D

 11 12  0  0  0  0  0  0  0  0999 V2000
  131.6987   52.0309   32.8112 C   0  0  0  0  0  0  0  0  0  0  0  0
  131.2988   53.2309   32.0112 C   0  0  0  0  0  0  0  0  0  0  0  0
  129.8988   53.2309   31.9112 N   0  0  0  0  0  0  0  0  0  0  0  0
  129.3988   51.9309   31.8112 C   0  0  0  0  0  0  0  0  0  0  0  0
  129.4988   50.9309   32.6112 C   0  0  0  0  0  0  0  0  0  0  0  0
  132.2988   54.2309   31.6112 C   0  0  0  0  0  0  0  0  0  0  0  0
  132.8987   52.5309   33.3112 N   0  0  0  0  0  0  0  0  0  0  0  0
  133.4987   54.6309   32.2112 C   0  0  0  0  0  0  0  0  0  0  0  0
  133.8987   53.3309   33.1112 C   0  0  0  0  0  0  0  0  0  0  0  0
  135.0987   52.8309   32.9112 O   0  0  0  0  0  0  0  0  0  0  0  0
  130.8988   51.0309   33.0112 C   0  0  0  0  0  0  0  0  0  0  0  0
  2  1  1  0
  3  2  1  0
  4  3  1  0
  5  4  1  0
  6  2  1  0
  7  1  1  0
  8  6  1  0
  9  7  1  0
  9  8  1  0
 10  9  2  0
 11  1  2  0
 11  5  1  0
M  END
>  <ID>  (1) 
conformer_0

$$$$
