
     RDKit          3D

 11 12  0  0  0  0  0  0  0  0999 V2000
  129.6571   50.8956   32.6549 C   0  0  0  0  0  0  0  0  0  0  0  0
  128.8571   51.6956   31.8549 C   0  0  0  0  0  0  0  0  0  0  0  0
  129.4571   52.9956   31.9549 N   0  0  0  0  0  0  0  0  0  0  0  0
  130.7571   52.8956   31.8549 C   0  0  0  0  0  0  0  0  0  0  0  0
  131.6571   52.2956   32.6549 C   0  0  0  0  0  0  0  0  0  0  0  0
  132.4571   53.0956   33.5549 N   0  0  0  0  0  0  0  0  0  0  0  0
  133.1571   54.1956   32.9549 C   0  0  0  0  0  0  0  0  0  0  0  0
  132.7571   54.3956   31.7549 N   0  0  0  0  0  0  0  0  0  0  0  0
  133.7571   55.0956   33.7549 N   0  0  0  0  0  0  0  0  0  0  0  0
  131.3571   54.1956   31.3549 C   0  0  0  0  0  0  0  0  0  0  0  0
  131.0571   50.9956   32.8549 C   0  0  0  0  0  0  0  0  0  0  0  0
  2  1  1  0
  3  2  1  0
  4  3  1  0
  5  4  1  0
  6  5  1  0
  7  6  2  0
  8  7  1  0
  9  7  1  0
 10  4  1  0
 10  8  1  0
 11  1  1  0
 11  5  1  0
M  END
>  <ID>  (1) 
conformer_0

$$$$
