
     RDKit          3D

  9 10  0  0  0  0  0  0  0  0999 V2000
  129.5100   50.8600   32.6570 C   0  0  0  0  0  0  0  0  0  0  0  0
  129.0100   51.8600   31.7570 C   0  0  0  0  0  0  0  0  0  0  0  0
  129.6100   53.1600   31.9570 N   0  0  0  0  0  0  0  0  0  0  0  0
  131.0100   53.2600   31.9570 C   0  0  0  0  0  0  0  0  0  0  0  0
  131.6100   52.1600   32.7570 C   0  0  0  0  0  0  0  0  0  0  0  0
  132.0100   54.2600   31.6570 C   0  0  0  0  0  0  0  0  0  0  0  0
  133.2100   54.1600   32.4570 C   0  0  0  0  0  0  0  0  0  0  0  0
  133.0100   52.8600   33.1570 C   0  0  0  0  0  0  0  0  0  0  0  0
  130.7100   51.3600   33.1570 N   0  0  0  0  0  0  0  0  0  0  0  0
  2  1  1  0
  3  2  1  0
  4  3  1  0
  5  4  1  0
  6  4  1  0
  7  6  1  0
  8  5  1  0
  8  7  1  0
  9  1  1  0
  9  5  1  0
M  END
>  <ID>  (1) 
conformer_0

$$$$
