
     RDKit          3D

 10 11  0  0  0  0  0  0  0  0999 V2000
  129.0399   51.9151   31.8486 C   0  0  0  0  0  0  0  0  0  0  0  0
  129.6399   50.8151   32.5486 C   0  0  0  0  0  0  0  0  0  0  0  0
  129.6399   53.2150   32.1486 N   0  0  0  0  0  0  0  0  0  0  0  0
  131.0399   53.0150   32.0486 C   0  0  0  0  0  0  0  0  0  0  0  0
  131.8399   52.0150   32.7486 C   0  0  0  0  0  0  0  0  0  0  0  0
  132.9399   52.6150   33.3486 N   0  0  0  0  0  0  0  0  0  0  0  0
  131.9399   54.0150   31.5486 C   0  0  0  0  0  0  0  0  0  0  0  0
  133.9399   53.4150   32.6486 C   0  0  0  0  0  0  0  0  0  0  0  0
  133.1399   54.5150   31.9486 C   0  0  0  0  0  0  0  0  0  0  0  0
  131.0399   50.9151   32.8486 C   0  0  0  0  0  0  0  0  0  0  0  0
  2  1  1  0
  3  1  1  0
  4  3  1  0
  5  4  1  0
  6  5  1  0
  7  4  1  0
  8  6  1  0
  9  7  1  0
  9  8  1  0
 10  2  2  0
 10  5  1  0
M  END
>  <ID>  (1) 
conformer_0

$$$$
