
     RDKit          3D

  9 10  0  0  0  0  0  0  0  0999 V2000
  129.1769   51.9018   31.7622 C   0  0  0  0  0  0  0  0  0  0  0  0
  129.9769   51.0018   32.5622 C   0  0  0  0  0  0  0  0  0  0  0  0
  129.5769   53.2018   31.7622 N   0  0  0  0  0  0  0  0  0  0  0  0
  130.9769   53.3018   31.8622 C   0  0  0  0  0  0  0  0  0  0  0  0
  131.8768   52.6018   32.5622 C   0  0  0  0  0  0  0  0  0  0  0  0
  132.9769   53.0018   33.3622 N   0  0  0  0  0  0  0  0  0  0  0  0
  134.2769   53.1018   33.0622 C   0  0  0  0  0  0  0  0  0  0  0  0
  130.9769   51.7018   33.1622 N   0  0  0  0  0  0  0  0  0  0  0  0
  133.3769   54.0018   32.4622 C   0  0  0  0  0  0  0  0  0  0  0  0
  2  1  1  0
  3  1  1  0
  4  3  1  0
  5  4  1  0
  6  5  1  0
  7  6  1  0
  8  2  1  0
  8  5  1  0
  9  6  1  0
  9  7  1  0
M  END
>  <ID>  (1) 
conformer_0

$$$$
