
     RDKit          3D

 11 12  0  0  0  0  0  0  0  0999 V2000
  128.8721   51.5584   31.8515 C   0  0  0  0  0  0  0  0  0  0  0  0
  129.7721   50.7584   32.5515 C   0  0  0  0  0  0  0  0  0  0  0  0
  129.3721   52.8584   31.3515 C   0  0  0  0  0  0  0  0  0  0  0  0
  130.6721   52.9584   32.0515 N   0  0  0  0  0  0  0  0  0  0  0  0
  131.0721   51.8584   32.6515 C   0  0  0  0  0  0  0  0  0  0  0  0
  131.6721   53.9584   31.6515 C   0  0  0  0  0  0  0  0  0  0  0  0
  131.5721   54.3584   30.5515 O   0  0  0  0  0  0  0  0  0  0  0  0
  132.7721   53.8584   32.6515 C   0  0  0  0  0  0  0  0  0  0  0  0
  134.1721   54.1584   32.2515 C   0  0  0  0  0  0  0  0  0  0  0  0
  132.8721   52.8584   33.6515 O   0  0  0  0  0  0  0  0  0  0  0  0
  133.3721   55.1584   32.8515 C   0  0  0  0  0  0  0  0  0  0  0  0
  2  1  1  0
  3  1  2  0
  4  3  1  0
  5  2  2  0
  5  4  1  0
  6  4  1  0
  7  6  2  0
  8  6  1  0
  9  8  1  0
 10  8  1  0
 11  8  1  0
 11  9  1  0
M  END
>  <ID>  (1) 
conformer_0

$$$$
