
     RDKit          3D

 10 10  0  0  0  0  0  0  0  0999 V2000
  131.2589   53.6263   31.9819 C   0  0  0  0  0  0  0  0  0  0  0  0
  129.9589   53.1263   32.2819 N   0  0  0  0  0  0  0  0  0  0  0  0
  129.3589   51.9263   31.7819 C   0  0  0  0  0  0  0  0  0  0  0  0
  129.3589   50.7263   32.5819 C   0  0  0  0  0  0  0  0  0  0  0  0
  132.2589   52.8263   32.6819 C   0  0  0  0  0  0  0  0  0  0  0  0
  133.5589   53.5263   32.8819 C   0  0  0  0  0  0  0  0  0  0  0  0
  133.7589   54.5263   31.7819 C   0  0  0  0  0  0  0  0  0  0  0  0
  132.7589   55.0263   30.9819 N   0  0  0  0  0  0  0  0  0  0  0  0
  131.4589   54.4263   30.7819 C   0  0  0  0  0  0  0  0  0  0  0  0
  133.0589   55.9263   29.8819 C   0  0  0  0  0  0  0  0  0  0  0  0
  2  1  1  0
  3  2  1  0
  4  3  1  0
  5  1  1  0
  6  5  1  0
  7  6  1  0
  8  7  1  0
  9  1  1  0
  9  8  1  0
 10  8  1  0
M  END
>  <ID>  (1) 
conformer_0

$$$$
