
     RDKit          3D

 11 12  0  0  0  0  0  0  0  0999 V2000
  128.8445   51.7816   31.8879 C   0  0  0  0  0  0  0  0  0  0  0  0
  129.8445   50.9816   32.5879 C   0  0  0  0  0  0  0  0  0  0  0  0
  129.5444   53.0816   31.7879 N   0  0  0  0  0  0  0  0  0  0  0  0
  130.9444   53.0816   31.8879 C   0  0  0  0  0  0  0  0  0  0  0  0
  131.8444   52.4816   32.6879 C   0  0  0  0  0  0  0  0  0  0  0  0
  133.1444   52.9816   32.9879 C   0  0  0  0  0  0  0  0  0  0  0  0
  133.0444   54.3816   32.5879 C   0  0  0  0  0  0  0  0  0  0  0  0
  132.6444   54.6816   31.2879 C   0  0  0  0  0  0  0  0  0  0  0  0
  133.1444   55.5816   30.4879 N   0  0  0  0  0  0  0  0  0  0  0  0
  131.5444   53.9816   30.9879 N   0  0  0  0  0  0  0  0  0  0  0  0
  130.9445   51.3816   32.9879 N   0  0  0  0  0  0  0  0  0  0  0  0
  2  1  1  0
  3  1  1  0
  4  3  2  0
  5  4  1  0
  6  5  1  0
  7  6  1  0
  8  7  1  0
  9  8  2  0
 10  4  1  0
 10  8  1  0
 11  2  1  0
 11  5  2  0
M  END
>  <ID>  (1) 
conformer_0

$$$$
