
     RDKit          3D

  7  6  0  0  0  0  0  0  0  0999 V2000
  132.3691   54.0021   32.6090 C   0  0  0  0  0  0  0  0  0  0  0  0
  131.6691   52.7021   32.4090 C   0  0  0  0  0  0  0  0  0  0  0  0
  130.2691   53.1021   32.2090 N   0  0  0  0  0  0  0  0  0  0  0  0
  129.3691   52.1021   31.8090 C   0  0  0  0  0  0  0  0  0  0  0  0
  129.4691   50.8021   32.5090 C   0  0  0  0  0  0  0  0  0  0  0  0
  132.7691   54.7021   31.5090 N   0  0  0  0  0  0  0  0  0  0  0  0
  133.3691   53.8021   33.4090 O   0  0  0  0  0  0  0  0  0  0  0  0
  2  1  1  0
  3  2  1  0
  4  3  1  0
  5  4  1  0
  6  1  1  0
  7  1  1  0
M  END
>  <ID>  (1) 
conformer_0

$$$$
