
     RDKit          3D

 10 13  0  0  0  0  0  0  0  0999 V2000
  129.6571   50.8956   32.6549 C   0  0  0  0  0  0  0  0  0  0  0  0
  128.8571   51.6956   31.8549 C   0  0  0  0  0  0  0  0  0  0  0  0
  129.5571   52.9956   31.9549 N   0  0  0  0  0  0  0  0  0  0  0  0
  130.9571   52.7956   31.9549 C   0  0  0  0  0  0  0  0  0  0  0  0
  131.8571   52.1956   32.9549 C   0  0  0  0  0  0  0  0  0  0  0  0
  133.0571   52.9956   33.1549 C   0  0  0  0  0  0  0  0  0  0  0  0
  132.9570   54.2956   32.6549 C   0  0  0  0  0  0  0  0  0  0  0  0
  131.7571   53.9956   31.5549 C   0  0  0  0  0  0  0  0  0  0  0  0
  128.5571   51.2956   32.8549 O   0  0  0  0  0  0  0  0  0  0  0  0
  130.9571   51.1956   32.9549 N   0  0  0  0  0  0  0  0  0  0  0  0
  2  1  1  0
  3  2  1  0
  4  3  1  0
  5  4  1  0
  6  5  1  0
  7  6  1  0
  8  4  1  0
  8  7  1  0
  9  1  1  0
  9  2  1  0
 10  1  1  0
 10  4  1  0
 10  5  1  0
M  END
>  <ID>  (1) 
conformer_0

$$$$
