
     RDKit          3D

  9  9  0  0  0  0  0  0  0  0999 V2000
  128.8445   51.7816   31.8879 C   0  0  0  0  0  0  0  0  0  0  0  0
  129.8445   50.9816   32.5879 C   0  0  0  0  0  0  0  0  0  0  0  0
  129.5444   52.9816   31.7879 N   0  0  0  0  0  0  0  0  0  0  0  0
  130.8445   53.1816   31.7879 C   0  0  0  0  0  0  0  0  0  0  0  0
  131.8445   52.5816   32.5879 C   0  0  0  0  0  0  0  0  0  0  0  0
  133.1445   53.0816   32.9879 C   0  0  0  0  0  0  0  0  0  0  0  0
  131.0444   51.5816   32.9879 N   0  0  0  0  0  0  0  0  0  0  0  0
  133.4445   54.4816   32.5879 C   0  0  0  0  0  0  0  0  0  0  0  0
  133.1445   54.9816   31.2879 N   0  0  0  0  0  0  0  0  0  0  0  0
  2  1  1  0
  3  1  1  0
  4  3  1  0
  5  4  1  0
  6  5  1  0
  7  2  1  0
  7  5  1  0
  8  6  1  0
  9  8  1  0
M  END
>  <ID>  (1) 
conformer_0

$$$$
