
     RDKit          3D

  8  8  0  0  0  0  0  0  0  0999 V2000
  129.5100   50.8600   32.6570 C   0  0  0  0  0  0  0  0  0  0  0  0
  128.8100   51.7600   31.7570 C   0  0  0  0  0  0  0  0  0  0  0  0
  129.4100   53.0600   31.7570 N   0  0  0  0  0  0  0  0  0  0  0  0
  130.6100   53.0600   31.8570 C   0  0  0  0  0  0  0  0  0  0  0  0
  131.5100   52.2600   32.6570 C   0  0  0  0  0  0  0  0  0  0  0  0
  132.5100   52.7600   33.3570 N   0  0  0  0  0  0  0  0  0  0  0  0
  133.9100   53.0600   33.3570 C   0  0  0  0  0  0  0  0  0  0  0  0
  130.7100   51.3600   32.9570 N   0  0  0  0  0  0  0  0  0  0  0  0
  2  1  1  0
  3  2  1  0
  4  3  1  0
  5  4  1  0
  6  5  1  0
  7  6  1  0
  8  1  1  0
  8  5  2  0
M  END
>  <ID>  (1) 
conformer_0

$$$$
