
     RDKit          3D

  7  7  0  0  0  0  0  0  0  0999 V2000
  129.5100   50.8600   32.6570 C   0  0  0  0  0  0  0  0  0  0  0  0
  128.8100   51.7600   31.7570 C   0  0  0  0  0  0  0  0  0  0  0  0
  129.6100   52.9600   31.9570 N   0  0  0  0  0  0  0  0  0  0  0  0
  131.0100   52.7600   32.1570 C   0  0  0  0  0  0  0  0  0  0  0  0
  131.6100   53.7600   32.9570 N   0  0  0  0  0  0  0  0  0  0  0  0
  130.9100   51.3600   32.7570 C   0  0  0  0  0  0  0  0  0  0  0  0
  132.9100   54.3600   32.6570 C   0  0  0  0  0  0  0  0  0  0  0  0
  2  1  1  0
  3  2  1  0
  4  3  1  0
  5  4  1  0
  6  1  1  0
  6  4  1  0
  7  5  1  0
M  END
>  <ID>  (1) 
conformer_0

$$$$
