
     RDKit          3D

 10 11  0  0  0  0  0  0  0  0999 V2000
  129.6571   50.8956   32.6549 C   0  0  0  0  0  0  0  0  0  0  0  0
  128.8571   51.6956   31.7549 C   0  0  0  0  0  0  0  0  0  0  0  0
  129.5571   52.9956   31.7549 N   0  0  0  0  0  0  0  0  0  0  0  0
  130.8571   52.8956   31.8549 C   0  0  0  0  0  0  0  0  0  0  0  0
  131.7571   52.1956   32.7549 C   0  0  0  0  0  0  0  0  0  0  0  0
  132.9571   52.9956   33.0549 C   0  0  0  0  0  0  0  0  0  0  0  0
  132.9571   54.1956   32.1549 C   0  0  0  0  0  0  0  0  0  0  0  0
  131.6571   53.9956   31.4549 C   0  0  0  0  0  0  0  0  0  0  0  0
  130.6571   51.3956   33.0549 N   0  0  0  0  0  0  0  0  0  0  0  0
  133.5571   55.1956   32.7549 N   0  0  0  0  0  0  0  0  0  0  0  0
  2  1  1  0
  3  2  1  0
  4  3  1  0
  5  4  2  0
  6  5  1  0
  7  6  2  0
  8  4  1  0
  8  7  1  0
  9  1  1  0
  9  5  1  0
 10  7  1  0
M  END
>  <ID>  (1) 
conformer_0

$$$$
