
     RDKit          3D

 10 10  0  0  0  0  0  0  0  0999 V2000
  132.3691   54.0021   32.6090 C   0  0  0  0  0  0  0  0  0  0  0  0
  131.6691   52.7021   32.4090 C   0  0  0  0  0  0  0  0  0  0  0  0
  130.2691   53.1021   32.2090 N   0  0  0  0  0  0  0  0  0  0  0  0
  129.3691   52.1021   31.8090 C   0  0  0  0  0  0  0  0  0  0  0  0
  129.4691   50.9021   32.6090 C   0  0  0  0  0  0  0  0  0  0  0  0
  130.4691   54.0021   31.1090 C   0  0  0  0  0  0  0  0  0  0  0  0
  132.7691   54.7021   31.4090 N   0  0  0  0  0  0  0  0  0  0  0  0
  131.5691   54.7021   30.5090 C   0  0  0  0  0  0  0  0  0  0  0  0
  134.0691   55.3021   31.2090 C   0  0  0  0  0  0  0  0  0  0  0  0
  128.5691   52.4021   30.7090 C   0  0  0  0  0  0  0  0  0  0  0  0
  2  1  1  0
  3  2  1  0
  4  3  1  0
  5  4  1  0
  6  3  1  0
  7  1  1  0
  8  6  1  0
  8  7  1  0
  9  7  1  0
 10  4  1  0
M  END
>  <ID>  (1) 
conformer_0

$$$$
