
     RDKit          3D

 10 11  0  0  0  0  0  0  0  0999 V2000
  129.6571   50.8956   32.6549 C   0  0  0  0  0  0  0  0  0  0  0  0
  128.8571   51.7956   31.8549 C   0  0  0  0  0  0  0  0  0  0  0  0
  129.6571   52.9956   31.8549 N   0  0  0  0  0  0  0  0  0  0  0  0
  131.0571   52.8956   32.0549 C   0  0  0  0  0  0  0  0  0  0  0  0
  131.7571   52.0956   32.7549 C   0  0  0  0  0  0  0  0  0  0  0  0
  132.9571   52.6956   33.3549 N   0  0  0  0  0  0  0  0  0  0  0  0
  133.5571   53.6956   32.5549 C   0  0  0  0  0  0  0  0  0  0  0  0
  131.5571   54.0956   31.3549 C   0  0  0  0  0  0  0  0  0  0  0  0
  133.0571   54.2956   31.5549 N   0  0  0  0  0  0  0  0  0  0  0  0
  130.7571   51.2956   33.2549 N   0  0  0  0  0  0  0  0  0  0  0  0
  2  1  1  0
  3  2  1  0
  4  3  1  0
  5  4  1  0
  6  5  2  0
  7  6  1  0
  8  4  1  0
  9  7  2  0
  9  8  1  0
 10  1  1  0
 10  5  1  0
M  END
>  <ID>  (1) 
conformer_0

$$$$
