
     RDKit          3D

  8  8  0  0  0  0  0  0  0  0999 V2000
  129.0943   52.0970   31.7794 C   0  0  0  0  0  0  0  0  0  0  0  0
  129.4943   50.8970   32.5794 C   0  0  0  0  0  0  0  0  0  0  0  0
  129.8943   53.1970   32.0794 N   0  0  0  0  0  0  0  0  0  0  0  0
  131.2943   52.9970   32.0794 C   0  0  0  0  0  0  0  0  0  0  0  0
  131.8943   51.9970   32.8794 C   0  0  0  0  0  0  0  0  0  0  0  0
  132.2943   54.0970   31.9794 C   0  0  0  0  0  0  0  0  0  0  0  0
  133.1943   52.2970   33.1794 N   0  0  0  0  0  0  0  0  0  0  0  0
  133.4943   53.6970   32.6794 C   0  0  0  0  0  0  0  0  0  0  0  0
  2  1  1  0
  3  1  1  0
  4  3  1  0
  5  4  2  0
  6  4  1  0
  7  5  1  0
  8  6  1  0
  8  7  2  0
M  END
>  <ID>  (1) 
conformer_0

$$$$
