
     RDKit          3D

 11 11  0  0  0  0  0  0  0  0999 V2000
  130.2894   51.1086   32.5617 C   0  0  0  0  0  0  0  0  0  0  0  0
  129.0894   51.6086   31.8617 C   0  0  0  0  0  0  0  0  0  0  0  0
  131.3894   52.1086   32.6617 C   0  0  0  0  0  0  0  0  0  0  0  0
  130.7894   53.3086   32.2617 N   0  0  0  0  0  0  0  0  0  0  0  0
  129.4894   53.1086   31.5617 C   0  0  0  0  0  0  0  0  0  0  0  0
  132.5894   52.1086   32.9617 O   0  0  0  0  0  0  0  0  0  0  0  0
  131.7894   54.1086   31.5617 C   0  0  0  0  0  0  0  0  0  0  0  0
  133.0894   54.6086   31.9617 C   0  0  0  0  0  0  0  0  0  0  0  0
  133.7894   55.3086   30.9617 C   0  0  0  0  0  0  0  0  0  0  0  0
  133.1894   54.8086   33.2617 N   0  0  0  0  0  0  0  0  0  0  0  0
  134.3894   56.5086   31.2617 O   0  0  0  0  0  0  0  0  0  0  0  0
  2  1  1  0
  3  1  1  0
  4  3  1  0
  5  2  1  0
  5  4  1  0
  6  3  2  0
  7  4  1  0
  8  7  1  0
  9  8  1  0
 10  8  2  0
 11  9  1  0
M  END
>  <ID>  (1) 
conformer_0

$$$$
