
     RDKit          3D

  9 10  0  0  0  0  0  0  0  0999 V2000
  129.6571   50.8956   32.6549 C   0  0  0  0  0  0  0  0  0  0  0  0
  128.8571   51.7956   31.8549 C   0  0  0  0  0  0  0  0  0  0  0  0
  129.6571   52.9956   31.8549 N   0  0  0  0  0  0  0  0  0  0  0  0
  130.9571   52.8956   31.9549 C   0  0  0  0  0  0  0  0  0  0  0  0
  131.6571   51.9956   32.6549 C   0  0  0  0  0  0  0  0  0  0  0  0
  132.8571   52.3956   33.2549 N   0  0  0  0  0  0  0  0  0  0  0  0
  131.9571   53.8956   31.5549 C   0  0  0  0  0  0  0  0  0  0  0  0
  133.0571   53.6956   32.5549 C   0  0  0  0  0  0  0  0  0  0  0  0
  130.6571   51.2956   33.1549 N   0  0  0  0  0  0  0  0  0  0  0  0
  2  1  1  0
  3  2  1  0
  4  3  1  0
  5  4  1  0
  6  5  2  0
  7  4  1  0
  8  6  1  0
  8  7  1  0
  9  1  1  0
  9  5  1  0
M  END
>  <ID>  (1) 
conformer_0

$$$$
