
     RDKit          3D

 13 14  0  0  0  0  0  0  0  0999 V2000
    3.5112   -0.7394    0.5669 N   0  0  0  0  0  0  0  0  0  0  0  0
    2.6112   -1.6394    1.0669 C   0  0  0  0  0  0  0  0  0  0  0  0
    3.2112   -2.4394    1.9669 C   0  0  0  0  0  0  0  0  0  0  0  0
    4.9112   -1.1394    0.8669 C   0  0  0  0  0  0  0  0  0  0  0  0
    4.6112   -2.2394    1.8669 C   0  0  0  0  0  0  0  0  0  0  0  0
    3.1112    0.3606   -0.1331 N   0  0  0  0  0  0  0  0  0  0  0  0
    2.0112    1.1606    0.2669 C   0  0  0  0  0  0  0  0  0  0  0  0
    2.2112    2.4606    0.9669 C   0  0  0  0  0  0  0  0  0  0  0  0
    3.5112    2.8606    1.4669 C   0  0  0  0  0  0  0  0  0  0  0  0
    0.7112    1.2606   -0.3331 C   0  0  0  0  0  0  0  0  0  0  0  0
    0.2112    2.6606   -0.4331 C   0  0  0  0  0  0  0  0  0  0  0  0
    1.5112    3.3606    0.0669 O   0  0  0  0  0  0  0  0  0  0  0  0
    4.6112    1.9606    1.4669 O   0  0  0  0  0  0  0  0  0  0  0  0
  2  1  1  0
  3  2  2  0
  4  1  1  0
  5  3  1  0
  5  4  2  0
  6  1  1  0
  7  6  1  0
  8  7  1  0
  9  8  1  0
 10  7  1  0
 11 10  1  0
 12  8  1  0
 12 11  1  0
 13  9  1  0
M  END
>  <ID>  (1) 
conformer_0

$$$$
