
     RDKit          3D

 11 11  0  0  0  0  0  0  0  0999 V2000
    3.5112   -0.7394    0.5669 N   0  0  0  0  0  0  0  0  0  0  0  0
    2.7112   -1.6394    1.1669 C   0  0  0  0  0  0  0  0  0  0  0  0
    3.3112   -2.4394    2.0669 C   0  0  0  0  0  0  0  0  0  0  0  0
    4.9112   -1.0394    0.8669 C   0  0  0  0  0  0  0  0  0  0  0  0
    4.7112   -2.1394    1.8669 C   0  0  0  0  0  0  0  0  0  0  0  0
    3.1112   -0.1394   -0.6331 C   0  0  0  0  0  0  0  0  0  0  0  0
    1.8112    0.5606   -0.5331 C   0  0  0  0  0  0  0  0  0  0  0  0
    1.8112    1.9606   -0.0331 C   0  0  0  0  0  0  0  0  0  0  0  0
    0.5112    2.5606   -0.2331 C   0  0  0  0  0  0  0  0  0  0  0  0
    0.4112    3.8606   -0.5331 O   0  0  0  0  0  0  0  0  0  0  0  0
    2.8112    2.9606   -0.2331 O   0  0  0  0  0  0  0  0  0  0  0  0
  2  1  1  0
  3  2  2  0
  4  1  1  0
  5  3  1  0
  5  4  2  0
  6  1  1  0
  7  6  1  0
  8  7  1  0
  9  8  1  0
 10  9  1  0
 11  8  1  0
M  END
>  <ID>  (1) 
conformer_0

$$$$
