
     RDKit          3D

 30 34  0  0  0  0  0  0  0  0999 V2000
    3.1039   -0.6939    0.5525 N   0  0  0  0  0  4  0  0  0  0  0  0
    2.8039   -1.7939    1.3525 C   0  0  0  0  0  3  0  0  0  0  0  0
    1.6039   -2.1939    1.4525 N   0  0  0  0  0  0  0  0  0  0  0  0
    1.9039   -0.0939   -0.0475 C   0  0  0  0  0  0  0  0  0  0  0  0
    2.0039    1.3061    0.0525 C   0  0  0  0  0  0  0  0  0  0  0  0
    4.1039    0.2061    0.7525 N   0  0  0  0  0  0  0  0  0  0  0  0
    2.6039    2.1061    0.8525 C   0  0  0  0  0  0  0  0  0  0  0  0
    3.8039   -2.3939    2.1525 C   0  0  0  0  0  0  0  0  0  0  0  0
    3.1039   -3.2939    2.9525 N   0  0  0  0  0  0  0  0  0  0  0  0
    3.6039    2.6061    1.5525 C   0  0  0  0  0  0  0  0  0  0  0  0
    2.1039   -2.6939    3.5525 N   0  0  0  0  0  0  0  0  0  0  0  0
    5.1039   -2.1939    1.7525 C   0  0  0  0  0  0  0  0  0  0  0  0
    6.3039   -2.2939    2.1525 N   0  0  0  0  0  0  0  0  0  0  0  0
    1.8039   -3.1939    2.5525 C   0  0  0  0  0  0  0  0  0  0  0  0
    0.7039    1.9061   -0.3475 C   0  0  0  0  0  0  0  0  0  0  0  0
    0.6039    3.3061   -0.2475 C   0  0  0  0  0  0  0  0  0  0  0  0
    7.4039   -1.6939    1.4525 C   0  0  0  0  0  0  0  0  0  0  0  0
    7.4039   -0.5939    0.9525 O   0  0  0  0  0  0  0  0  0  0  0  0
    8.6039   -2.4939    1.8525 C   0  0  0  0  0  0  0  0  0  0  0  0
    4.6039    2.1061    2.4525 O   0  0  0  0  0  0  0  0  0  0  0  0
   -0.2961    3.9061   -0.9475 O   0  0  0  0  0  0  0  0  0  0  0  0
    1.8039    3.8061   -0.4475 N   0  0  0  0  0  0  0  0  0  0  0  0
    5.1039    3.1061    3.4525 P   0  0  0  0  0  4  0  0  0  0  0  0
    4.7039    3.1061    4.8525 O   0  0  0  0  0  1  0  0  0  0  0  0
    6.5039    3.6061    3.3525 O   0  0  0  0  0  0  0  0  0  0  0  0
    4.8039   -0.8939    0.8525 C   0  0  0  0  0  0  0  0  0  0  0  0
    4.3039    4.3061    3.1525 O   0  0  0  0  0  0  0  0  0  0  0  0
    2.7039    3.5061    0.5525 C   0  0  0  0  0  0  0  0  0  0  0  0
    8.2039   -3.5939    2.7525 C   0  0  0  0  0  0  0  0  0  0  0  0
    6.7039   -3.3939    3.0525 C   0  0  0  0  0  0  0  0  0  0  0  0
  2  1  1  0
  3  2  1  0
  4  1  1  0
  5  4  1  0
  7  5  1  0
  8  2  1  0
  9  8  1  0
 10  7  1  0
 12  8  2  0
 13 12  1  0
 14  3  2  0
 14  9  1  0
 14 11  1  0
 15  5  1  0
 16 15  1  0
 17 13  1  0
 18 17  2  0
 19 17  1  0
 20 10  1  0
 21 16  2  0
 22 16  1  0
 23 20  1  0
 24 23  2  0
 25 23  1  0
 26  1  1  0
 26  6  1  0
 26 12  1  0
 27 23  1  0
 28  7  1  0
 28 10  1  0
 28 22  1  0
 29 19  2  0
 30 13  1  0
 30 29  1  0
M  END
>  <ID>  (1) 
conformer_0

$$$$
