
     RDKit          3D

 12 13  0  0  0  0  0  0  0  0999 V2000
    3.4268   -0.5226    0.7290 N   0  0  0  0  0  0  0  0  0  0  0  0
    2.7268   -1.6226    1.3290 C   0  0  0  0  0  0  0  0  0  0  0  0
    3.6268   -2.3226    2.0290 C   0  0  0  0  0  0  0  0  0  0  0  0
    4.7268   -0.7226    0.6290 C   0  0  0  0  0  0  0  0  0  0  0  0
    4.9268   -1.8226    1.5290 C   0  0  0  0  0  0  0  0  0  0  0  0
    2.7268    0.7774    0.6290 C   0  0  0  0  0  0  0  0  0  0  0  0
    1.4268    0.7774    0.0290 C   0  0  0  0  0  0  0  0  0  0  0  0
    1.1268    2.1774   -0.2710 C   0  0  0  0  0  0  0  0  0  0  0  0
    2.2268    3.0774   -0.0710 C   0  0  0  0  0  0  0  0  0  0  0  0
    3.0268    2.1774    1.0290 C   0  0  0  0  0  0  0  0  0  0  0  0
   -0.1732    2.6774   -0.4710 O   0  0  0  0  0  0  0  0  0  0  0  0
   -1.2732    2.7774   -1.0710 C   0  0  0  0  0  0  0  0  0  0  0  0
  2  1  1  0
  3  2  2  0
  4  1  1  0
  5  3  1  0
  5  4  2  0
  6  1  1  0
  7  6  1  0
  8  7  1  0
  9  8  1  0
 10  6  1  0
 10  9  1  0
 11  8  1  0
 12 11  1  0
M  END
>  <ID>  (1) 
conformer_0

$$$$
