
     RDKit          3D

 12 12  0  0  0  0  0  0  0  0999 V2000
    3.5112   -0.7394    0.5669 N   0  0  0  0  0  0  0  0  0  0  0  0
    2.7112   -1.6394    1.2669 C   0  0  0  0  0  0  0  0  0  0  0  0
    3.6112   -2.4394    2.0669 C   0  0  0  0  0  0  0  0  0  0  0  0
    4.9112   -1.0394    0.7669 C   0  0  0  0  0  0  0  0  0  0  0  0
    5.0112   -2.0394    1.7669 C   0  0  0  0  0  0  0  0  0  0  0  0
    3.1112   -0.0394   -0.6331 C   0  0  0  0  0  0  0  0  0  0  0  0
    2.1112    1.0606   -0.4331 C   0  0  0  0  0  0  0  0  0  0  0  0
    1.6112    1.7606   -1.6331 O   0  0  0  0  0  0  0  0  0  0  0  0
    2.5112    1.9606    0.6669 C   0  0  0  0  0  0  0  0  0  0  0  0
    1.6112    3.0606    0.8669 O   0  0  0  0  0  0  0  0  0  0  0  0
    3.7112    1.8606    1.4669 C   0  0  0  0  0  0  0  0  0  0  0  0
    4.8112    1.2606    1.3669 O   0  0  0  0  0  0  0  0  0  0  0  0
  2  1  1  0
  3  2  2  0
  4  1  1  0
  5  3  1  0
  5  4  2  0
  6  1  1  0
  7  6  1  0
  8  7  1  0
  9  7  1  0
 10  9  1  0
 11  9  1  0
 12 11  2  0
M  END
>  <ID>  (1) 
conformer_0

$$$$
