
     RDKit          3D

 28 32  0  0  0  0  0  0  0  0999 V2000
    3.1039   -0.6939    0.5525 N   0  0  0  0  0  4  0  0  0  0  0  0
    2.8039   -1.7939    1.3525 C   0  0  0  0  0  3  0  0  0  0  0  0
    1.6039   -2.1939    1.4525 N   0  0  0  0  0  0  0  0  0  0  0  0
    1.9039   -0.0939   -0.0475 C   0  0  0  0  0  0  0  0  0  0  0  0
    2.0039    1.3061    0.0525 C   0  0  0  0  0  0  0  0  0  0  0  0
    4.1039    0.2061    0.7525 N   0  0  0  0  0  0  0  0  0  0  0  0
    2.6039    2.1061    0.8525 C   0  0  0  0  0  0  0  0  0  0  0  0
    3.8039   -2.3939    2.1525 C   0  0  0  0  0  0  0  0  0  0  0  0
    3.1039   -3.1939    3.0525 N   0  0  0  0  0  0  0  0  0  0  0  0
    3.7039    2.4061    1.5525 C   0  0  0  0  0  0  0  0  0  0  0  0
    2.1039   -2.5939    3.5525 N   0  0  0  0  0  0  0  0  0  0  0  0
    0.8039    1.9061   -0.5475 C   0  0  0  0  0  0  0  0  0  0  0  0
    5.1039   -2.1939    1.9525 C   0  0  0  0  0  0  0  0  0  0  0  0
    6.3039   -1.7939    2.0525 N   0  0  0  0  0  0  0  0  0  0  0  0
    0.8039    3.2061   -0.5475 N   0  0  0  0  0  0  0  0  0  0  0  0
    1.7039   -2.9939    2.5525 C   0  0  0  0  0  0  0  0  0  0  0  0
    7.7039   -1.9939    1.8525 C   0  0  0  0  0  0  0  0  0  0  0  0
    8.2039   -1.2939    0.6525 C   0  0  0  0  0  0  0  0  0  0  0  0
    5.6039   -1.2939    1.0525 C   0  0  0  0  0  0  0  0  0  0  0  0
    8.7039   -1.7939    2.9525 C   0  0  0  0  0  0  0  0  0  0  0  0
    1.8039    3.5061    0.3525 C   0  0  0  0  0  0  0  0  0  0  0  0
    4.6039    2.7061    2.3525 O   0  0  0  0  0  0  0  0  0  0  0  0
    4.6039   -0.7939    0.3525 C   0  0  0  0  0  0  0  0  0  0  0  0
    9.5039   -0.6939    0.8525 C   0  0  0  0  0  0  0  0  0  0  0  0
    9.4039    0.4061    1.8525 C   0  0  0  0  0  0  0  0  0  0  0  0
    9.5039    1.7061    1.1525 C   0  0  0  0  0  0  0  0  0  0  0  0
   10.0039    1.6061   -0.1475 C   0  0  0  0  0  0  0  0  0  0  0  0
   10.2039    0.0061   -0.2475 O   0  0  0  0  0  0  0  0  0  0  0  0
  2  1  1  0
  3  2  1  0
  4  1  1  0
  5  4  1  0
  7  5  1  0
  8  2  1  0
  9  8  1  0
 10  7  2  0
 12  5  1  0
 13  8  2  0
 14 13  1  0
 15 12  1  0
 16  3  2  0
 16  9  1  0
 16 11  1  0
 17 14  1  0
 18 17  1  0
 19 13  1  0
 19 14  1  0
 20 17  1  0
 21  7  1  0
 21 15  2  0
 22 10  2  0
 23  1  1  0
 23  6  1  0
 23 19  2  0
 24 18  1  0
 25 24  1  0
 26 25  1  0
 27 26  1  0
 28 24  1  0
 28 27  1  0
M  END
>  <ID>  (1) 
conformer_0

$$$$
