
     RDKit          3D

 26 29  0  0  0  0  0  0  0  0999 V2000
    3.1039   -0.6939    0.5525 N   0  0  0  0  0  4  0  0  0  0  0  0
    2.8039   -1.7939    1.3525 C   0  0  0  0  0  3  0  0  0  0  0  0
    1.6039   -2.1939    1.4525 N   0  0  0  0  0  0  0  0  0  0  0  0
    1.9039   -0.0939   -0.0475 C   0  0  0  0  0  0  0  0  0  0  0  0
    2.0039    1.3061    0.0525 C   0  0  0  0  0  0  0  0  0  0  0  0
    4.1039    0.2061    0.7525 N   0  0  0  0  0  0  0  0  0  0  0  0
    2.6039    2.1061    0.8525 C   0  0  0  0  0  0  0  0  0  0  0  0
    3.8039   -2.3939    2.1525 C   0  0  0  0  0  0  0  0  0  0  0  0
    3.1039   -3.2939    2.9525 N   0  0  0  0  0  0  0  0  0  0  0  0
    3.6039    2.6061    1.5525 C   0  0  0  0  0  0  0  0  0  0  0  0
    2.1039   -2.7939    3.5525 N   0  0  0  0  0  0  0  0  0  0  0  0
    0.7039    1.9061   -0.3475 C   0  0  0  0  0  0  0  0  0  0  0  0
    0.8039    3.2061   -0.5475 N   0  0  0  0  0  0  0  0  0  0  0  0
    5.1039   -2.0939    1.7525 C   0  0  0  0  0  0  0  0  0  0  0  0
    6.3039   -1.9939    2.1525 N   0  0  0  0  0  0  0  0  0  0  0  0
    1.7039   -2.9939    2.5525 C   0  0  0  0  0  0  0  0  0  0  0  0
    7.5039   -2.1939    2.3525 C   0  0  0  0  0  0  0  0  0  0  0  0
    8.6039   -2.2939    1.4525 C   0  0  0  0  0  0  0  0  0  0  0  0
    2.5039    3.4061    0.9525 C   0  0  0  0  0  0  0  0  0  0  0  0
    8.2039   -2.1939    0.1525 F   0  0  0  0  0  0  0  0  0  0  0  0
    9.4039   -1.2939    1.7525 F   0  0  0  0  0  0  0  0  0  0  0  0
    1.9039    3.9061   -0.1475 O   0  0  0  0  0  0  0  0  0  0  0  0
    7.9039   -1.9939    3.6525 O   0  0  0  0  0  0  0  0  0  0  0  0
    4.7039   -0.7939    0.7525 C   0  0  0  0  0  0  0  0  0  0  0  0
    9.2039   -3.5939    1.4525 F   0  0  0  0  0  0  0  0  0  0  0  0
    9.1039   -2.1939    4.0525 C   0  0  0  0  0  0  0  0  0  0  0  0
  2  1  1  0
  3  2  1  0
  4  1  1  0
  5  4  1  0
  7  5  1  0
  8  2  1  0
  9  8  1  0
 10  7  1  0
 12  5  2  0
 13 12  1  0
 14  8  2  0
 15 14  1  0
 16  3  2  0
 16  9  1  0
 16 11  1  0
 17 15  1  0
 18 17  1  0
 19  7  2  0
 19 10  1  0
 20 18  1  0
 21 18  1  0
 22 13  1  0
 22 19  1  0
 23 17  1  0
 24  1  1  0
 24  6  1  0
 24 14  1  0
 25 18  1  0
 26 23  1  0
M  END
>  <ID>  (1) 
conformer_0

$$$$
