
     RDKit          3D

  7  8  0  0  0  0  0  0  0  0999 V2000
    3.4268   -0.5226    0.7290 N   0  0  0  0  0  0  0  0  0  0  0  0
    2.6268   -1.6226    1.2290 C   0  0  0  0  0  0  0  0  0  0  0  0
    3.4268   -2.3226    2.0290 C   0  0  0  0  0  0  0  0  0  0  0  0
    4.8268   -0.9226    0.8290 C   0  0  0  0  0  0  0  0  0  0  0  0
    4.8268   -2.0226    1.7290 C   0  0  0  0  0  0  0  0  0  0  0  0
    4.1268    0.1774    1.5290 C   0  0  0  0  0  0  0  0  0  0  0  0
    4.4268    1.3774    1.5290 O   0  0  0  0  0  0  0  0  0  0  0  0
  2  1  1  0
  3  2  2  0
  4  1  1  0
  5  3  1  0
  5  4  2  0
  6  1  1  0
  6  4  1  0
  7  6  1  0
M  END
>  <ID>  (1) 
conformer_0

$$$$
