
     RDKit          3D

 26 29  0  0  0  0  0  0  0  0999 V2000
    3.1039   -0.6939    0.5525 N   0  0  0  0  0  4  0  0  0  0  0  0
    2.8039   -1.7939    1.3525 C   0  0  0  0  0  3  0  0  0  0  0  0
    1.6039   -2.1939    1.4525 N   0  0  0  0  0  0  0  0  0  0  0  0
    1.9039   -0.0939   -0.0475 C   0  0  0  0  0  0  0  0  0  0  0  0
    2.0039    1.3061    0.0525 C   0  0  0  0  0  0  0  0  0  0  0  0
    4.1039    0.2061    0.7525 N   0  0  0  0  0  0  0  0  0  0  0  0
    2.6039    2.1061    0.8525 C   0  0  0  0  0  0  0  0  0  0  0  0
    4.0039   -2.2939    1.9525 C   0  0  0  0  0  0  0  0  0  0  0  0
    5.1039   -1.6939    1.4525 C   0  0  0  0  0  0  0  0  0  0  0  0
    6.3039   -1.7939    1.8525 N   0  0  0  0  0  0  0  0  0  0  0  0
    3.7039    2.4061    1.6525 C   0  0  0  0  0  0  0  0  0  0  0  0
    0.9039    1.9061   -0.7475 C   0  0  0  0  0  0  0  0  0  0  0  0
    1.0039    3.3061   -0.4475 O   0  0  0  0  0  0  0  0  0  0  0  0
    7.4039   -1.0939    1.2525 C   0  0  0  0  0  0  0  0  0  0  0  0
    8.6039   -1.8939    0.8525 C   0  0  0  0  0  0  0  0  0  0  0  0
    4.6039   -0.7939    0.5525 C   0  0  0  0  0  0  0  0  0  0  0  0
    8.6039   -2.9939    1.8525 C   0  0  0  0  0  0  0  0  0  0  0  0
    8.0039   -2.7939    3.1525 C   0  0  0  0  0  0  0  0  0  0  0  0
    6.6039   -2.2939    3.2525 C   0  0  0  0  0  0  0  0  0  0  0  0
    3.9039    3.8061    1.9525 O   0  0  0  0  0  0  0  0  0  0  0  0
    5.0039    4.0061    2.8525 P   0  0  0  0  0  4  0  0  0  0  0  0
    5.1039    4.6061    4.0525 O   0  0  0  0  0  1  0  0  0  0  0  0
    5.9039    3.1061    2.1525 O   0  0  0  0  0  0  0  0  0  0  0  0
    1.0039   -2.8939    2.2525 O   0  0  0  0  0  0  0  0  0  0  0  0
    5.4039    5.2061    2.0525 O   0  0  0  0  0  0  0  0  0  0  0  0
    3.8039    1.3061    1.1525 C   0  0  0  0  0  0  0  0  0  0  0  0
  2  1  1  0
  3  2  1  0
  4  1  1  0
  5  4  2  0
  7  5  1  0
  8  2  1  0
  9  8  2  0
 10  9  1  0
 11  7  1  0
 12  5  1  0
 13 12  1  0
 14 10  1  0
 15 14  1  0
 16  1  1  0
 16  6  1  0
 16  9  1  0
 17 15  1  0
 18 17  1  0
 19 10  1  0
 19 18  1  0
 20 11  1  0
 21 20  1  0
 22 21  2  0
 23 21  1  0
 24  3  1  0
 25 21  1  0
 26  6  1  0
 26  7  2  0
 26 11  1  0
M  END
>  <ID>  (1) 
conformer_0

$$$$
