
     RDKit          3D

  7  8  0  0  0  0  0  0  0  0999 V2000
    3.8503   -0.6310    0.5847 N   0  0  0  0  0  0  0  0  0  0  0  0
    2.5503   -1.1310    0.7847 C   0  0  0  0  0  0  0  0  0  0  0  0
    2.7503   -2.2310    1.5847 C   0  0  0  0  0  0  0  0  0  0  0  0
    4.9503   -1.2310    1.0847 C   0  0  0  0  0  0  0  0  0  0  0  0
    3.6503   -2.6310    2.4847 N   0  0  0  0  0  0  0  0  0  0  0  0
    4.3503   -0.3310    1.8847 C   0  0  0  0  0  0  0  0  0  0  0  0
    4.8503   -2.3310    1.8847 C   0  0  0  0  0  0  0  0  0  0  0  0
  2  1  1  0
  3  2  1  0
  4  1  1  0
  5  3  2  0
  6  1  1  0
  6  4  1  0
  7  4  2  0
  7  5  1  0
M  END
>  <ID>  (1) 
conformer_0

$$$$
