
     RDKit          3D

 21 23  0  0  0  0  0  0  0  0999 V2000
    3.1039   -0.6939    0.5525 N   0  0  0  0  0  4  0  0  0  0  0  0
    2.8039   -1.7939    1.3525 C   0  0  0  0  0  3  0  0  0  0  0  0
    1.6039   -2.1939    1.4525 N   0  0  0  0  0  0  0  0  0  0  0  0
    1.9039   -0.0939   -0.0475 C   0  0  0  0  0  0  0  0  0  0  0  0
    2.0039    1.3061    0.0525 C   0  0  0  0  0  0  0  0  0  0  0  0
    4.1039    0.2061    0.7525 N   0  0  0  0  0  0  0  0  0  0  0  0
    2.6039    2.1061    0.8525 C   0  0  0  0  0  0  0  0  0  0  0  0
    4.0039   -2.2939    1.9525 C   0  0  0  0  0  0  0  0  0  0  0  0
    5.1039   -1.6939    1.4525 C   0  0  0  0  0  0  0  0  0  0  0  0
    6.3039   -1.7939    1.8525 N   0  0  0  0  0  0  0  0  0  0  0  0
    3.7039    2.5061    1.6525 C   0  0  0  0  0  0  0  0  0  0  0  0
    7.5039   -1.2939    1.1525 C   0  0  0  0  0  0  0  0  0  0  0  0
    0.8039    1.9061   -0.5475 C   0  0  0  0  0  0  0  0  0  0  0  0
    0.8039    3.3061   -0.3475 O   0  0  0  0  0  0  0  0  0  0  0  0
    8.7039   -2.1939    1.1525 C   0  0  0  0  0  0  0  0  0  0  0  0
    8.4039   -3.2939    2.0525 C   0  0  0  0  0  0  0  0  0  0  0  0
    7.0039   -3.0939    2.5525 C   0  0  0  0  0  0  0  0  0  0  0  0
    4.7039   -0.7939    0.4525 C   0  0  0  0  0  0  0  0  0  0  0  0
    3.6039    3.5061    2.5525 O   0  0  0  0  0  0  0  0  0  0  0  0
    1.1039   -3.1939    2.0525 N   0  0  0  0  0  0  0  0  0  0  0  0
    3.0039    3.4061    0.4525 C   0  0  0  0  0  0  0  0  0  0  0  0
  2  1  1  0
  3  2  1  0
  4  1  1  0
  5  4  1  0
  7  5  1  0
  8  2  1  0
  9  8  2  0
 10  9  1  0
 11  7  1  0
 12 10  1  0
 13  5  1  0
 14 13  1  0
 15 12  2  0
 16 15  1  0
 17 10  1  0
 17 16  2  0
 18  1  1  0
 18  6  1  0
 18  9  1  0
 19 11  1  0
 20  3  2  0
 21  7  1  0
 21 11  1  0
M  END
>  <ID>  (1) 
conformer_0

$$$$
