
     RDKit          3D

 10 11  0  0  0  0  0  0  0  0999 V2000
    3.4268   -0.5226    0.7290 N   0  0  0  0  0  0  0  0  0  0  0  0
    2.7268   -1.6226    1.3290 C   0  0  0  0  0  0  0  0  0  0  0  0
    3.6268   -2.4226    1.9290 C   0  0  0  0  0  0  0  0  0  0  0  0
    4.7268   -0.9226    0.6290 C   0  0  0  0  0  0  0  0  0  0  0  0
    4.9268   -1.9226    1.6290 C   0  0  0  0  0  0  0  0  0  0  0  0
    2.8268    0.6774    0.4290 C   0  0  0  0  0  0  0  0  0  0  0  0
    2.7268    1.9774    1.0290 C   0  0  0  0  0  0  0  0  0  0  0  0
    1.6268    2.7774    0.4290 C   0  0  0  0  0  0  0  0  0  0  0  0
    0.9268    1.9774   -0.5710 C   0  0  0  0  0  0  0  0  0  0  0  0
    1.5268    0.5774   -0.2710 C   0  0  0  0  0  0  0  0  0  0  0  0
  2  1  1  0
  3  2  2  0
  4  1  1  0
  5  3  1  0
  5  4  2  0
  6  1  1  0
  7  6  1  0
  8  7  1  0
  9  8  1  0
 10  6  1  0
 10  9  1  0
M  END
>  <ID>  (1) 
conformer_0

$$$$
