
     RDKit          3D

 28 31  0  0  0  0  0  0  0  0999 V2000
    3.1039   -0.6939    0.5525 N   0  0  0  0  0  0  0  0  0  0  0  0
    2.8039   -1.7939    1.3525 C   0  0  0  0  0  0  0  0  0  0  0  0
    1.6039   -2.1939    1.4525 N   0  0  0  0  0  0  0  0  0  0  0  0
    1.9039   -0.0939   -0.0475 C   0  0  0  0  0  0  0  0  0  0  0  0
    2.0039    1.3061    0.0525 C   0  0  0  0  0  0  0  0  0  0  0  0
    4.1039    0.2061    0.7525 N   0  0  0  0  0  0  0  0  0  0  0  0
    2.6039    2.1061    0.8525 C   0  0  0  0  0  0  0  0  0  0  0  0
    3.8039   -2.3939    2.1525 C   0  0  0  0  0  0  0  0  0  0  0  0
    3.7039    2.7061    1.4525 C   0  0  0  0  0  0  0  0  0  0  0  0
    3.2039   -3.2939    2.9525 N   0  0  0  0  0  0  0  0  0  0  0  0
    2.2039   -2.6939    3.5525 N   0  0  0  0  0  0  0  0  0  0  0  0
    5.1039   -1.8939    1.7525 C   0  0  0  0  0  0  0  0  0  0  0  0
    6.3039   -2.0939    2.1525 N   0  0  0  0  0  0  0  0  0  0  0  0
    0.8039    1.8061   -0.6475 C   0  0  0  0  0  0  0  0  0  0  0  0
    0.4039    3.1061   -0.1475 C   0  0  0  0  0  0  0  0  0  0  0  0
    7.5039   -2.0939    1.9525 C   0  0  0  0  0  0  0  0  0  0  0  0
    1.8039   -3.1939    2.5525 C   0  0  0  0  0  0  0  0  0  0  0  0
    8.8039   -2.2939    2.6525 C   0  0  0  0  0  0  0  0  0  0  0  0
    3.6039    3.7061    2.2525 O   0  0  0  0  0  0  0  0  0  0  0  0
    4.9039   -0.7939    0.8525 C   0  0  0  0  0  0  0  0  0  0  0  0
   -0.1961    3.9061   -0.8475 O   0  0  0  0  0  0  0  0  0  0  0  0
    8.6039   -3.1939    3.5525 F   0  0  0  0  0  0  0  0  0  0  0  0
    9.5039   -2.7939    1.5525 F   0  0  0  0  0  0  0  0  0  0  0  0
    7.8039   -1.7939    0.5525 O   0  0  0  0  0  0  0  0  0  0  0  0
    9.1039   -1.0939    3.0525 F   0  0  0  0  0  0  0  0  0  0  0  0
    2.9039    3.4061    0.2525 C   0  0  0  0  0  0  0  0  0  0  0  0
    1.7039    3.7061   -0.2475 N   0  0  0  0  0  0  0  0  0  0  0  0
    8.7039   -0.7939    0.2525 C   0  0  0  0  0  0  0  0  0  0  0  0
  2  1  1  0
  3  2  1  0
  4  1  1  0
  5  4  1  0
  6  1  1  0
  7  5  1  0
  8  2  1  0
  9  7  1  0
 10  8  1  0
 12  8  2  0
 13 12  1  0
 14  5  1  0
 15 14  1  0
 16 13  2  3
 17  3  2  0
 17 10  1  0
 17 11  1  0
 18 16  1  0
 19  9  1  0
 20  6  2  0
 20 12  1  0
 21 15  2  0
 22 18  1  0
 23 18  1  0
 24 16  1  0
 25 18  1  0
 26  7  1  0
 26  9  1  0
 27 15  1  0
 27 26  1  0
 28 24  1  0
M  END
>  <ID>  (1) 
conformer_0

$$$$
