
     RDKit          3D

 27 32  0  0  0  0  0  0  0  0999 V2000
    3.1039   -0.6939    0.5525 N   0  0  0  0  0  4  0  0  0  0  0  0
    2.8039   -1.7939    1.3525 C   0  0  0  0  0  3  0  0  0  0  0  0
    1.6039   -2.1939    1.4525 N   0  0  0  0  0  0  0  0  0  0  0  0
    1.9039   -0.0939   -0.0475 C   0  0  0  0  0  0  0  0  0  0  0  0
    2.0039    1.3061    0.0525 C   0  0  0  0  0  0  0  0  0  0  0  0
    4.1039    0.2061    0.7525 N   0  0  0  0  0  0  0  0  0  0  0  0
    2.6039    2.1061    0.8525 C   0  0  0  0  0  0  0  0  0  0  0  0
    3.8039   -2.3939    2.1525 C   0  0  0  0  0  0  0  0  0  0  0  0
    3.7039    2.7061    1.4525 C   0  0  0  0  0  0  0  0  0  0  0  0
    3.2039   -3.2939    2.9525 N   0  0  0  0  0  0  0  0  0  0  0  0
    2.2039   -2.6939    3.5525 N   0  0  0  0  0  0  0  0  0  0  0  0
    5.1039   -1.8939    1.7525 C   0  0  0  0  0  0  0  0  0  0  0  0
    6.3039   -2.0939    2.1525 N   0  0  0  0  0  0  0  0  0  0  0  0
    0.7039    1.8061   -0.4475 C   0  0  0  0  0  0  0  0  0  0  0  0
    0.4039    3.1061   -0.2475 C   0  0  0  0  0  0  0  0  0  0  0  0
    2.0039   -3.7939    2.9525 C   0  0  0  0  0  0  0  0  0  0  0  0
    7.5039   -1.3939    1.7525 C   0  0  0  0  0  0  0  0  0  0  0  0
    7.4039   -0.3939    1.1525 O   0  0  0  0  0  0  0  0  0  0  0  0
    8.7039   -2.0939    2.2525 C   0  0  0  0  0  0  0  0  0  0  0  0
    4.8039   -0.8939    0.6525 C   0  0  0  0  0  0  0  0  0  0  0  0
   -0.1961    3.9061   -0.8475 O   0  0  0  0  0  0  0  0  0  0  0  0
    8.3039   -3.3939    2.7525 C   0  0  0  0  0  0  0  0  0  0  0  0
    6.7039   -3.2939    2.8525 C   0  0  0  0  0  0  0  0  0  0  0  0
    3.9039    4.1061    1.2525 O   0  0  0  0  0  0  0  0  0  0  0  0
    1.3039   -2.7939    2.4525 C   0  0  0  0  0  0  0  0  0  0  0  0
    1.7039    3.8061   -0.2475 O   0  0  0  0  0  0  0  0  0  0  0  0
    3.8039    1.4061    1.3525 C   0  0  0  0  0  0  0  0  0  0  0  0
  2  1  1  0
  3  2  1  0
  4  1  1  0
  5  4  1  0
  7  5  1  0
  8  2  1  0
  9  7  1  0
 10  8  1  0
 12  8  2  0
 13 12  1  0
 14  5  2  3
 15 14  1  0
 16 10  1  0
 16 11  1  0
 17 13  1  0
 18 17  2  0
 19 17  1  0
 20  1  1  0
 20  6  1  0
 20 12  1  0
 21 15  2  0
 22 19  1  0
 23 13  1  0
 23 22  1  0
 24  9  1  0
 25  3  2  0
 25 11  1  0
 25 16  1  0
 26 15  1  0
 27  6  1  0
 27  7  1  0
 27  9  1  0
M  END
>  <ID>  (1) 
conformer_0

$$$$
