
     RDKit          3D

 19 20  0  0  0  0  0  0  0  0999 V2000
    3.1039   -0.6939    0.5525 N   0  0  0  0  0  0  0  0  0  0  0  0
    2.8039   -1.7939    1.3525 C   0  0  0  0  0  0  0  0  0  0  0  0
    1.6039   -2.1939    1.5525 N   0  0  0  0  0  0  0  0  0  0  0  0
    1.9039    0.0061    0.1525 C   0  0  0  0  0  0  0  0  0  0  0  0
    2.0039    1.4061    0.4525 C   0  0  0  0  0  0  0  0  0  0  0  0
    1.0039    2.3061   -0.0475 C   0  0  0  0  0  0  0  0  0  0  0  0
    3.2039    1.8061    1.0525 C   0  0  0  0  0  0  0  0  0  0  0  0
    4.3039   -0.1939    0.3525 N   0  0  0  0  0  0  0  0  0  0  0  0
    4.0039   -2.2939    1.9525 C   0  0  0  0  0  0  0  0  0  0  0  0
    5.2039   -1.7939    1.6525 C   0  0  0  0  0  0  0  0  0  0  0  0
    4.0039    0.4061    1.2525 C   0  0  0  0  0  0  0  0  0  0  0  0
    6.3039   -2.3939    2.2525 N   0  0  0  0  0  0  0  0  0  0  0  0
    7.7039   -2.0939    1.9525 C   0  0  0  0  0  0  0  0  0  0  0  0
    8.0039   -0.8939    1.7525 O   0  0  0  0  0  0  0  0  0  0  0  0
    8.6039   -3.1939    1.8525 C   0  0  0  0  0  0  0  0  0  0  0  0
    3.8039   -3.3939    2.8525 N   0  0  0  0  0  0  0  0  0  0  0  0
    1.2039    3.7061   -0.3475 O   0  0  0  0  0  0  0  0  0  0  0  0
    1.5039   -3.0939    2.6525 C   0  0  0  0  0  0  0  0  0  0  0  0
    2.6039   -3.8939    3.0525 C   0  0  0  0  0  0  0  0  0  0  0  0
  2  1  1  0
  3  2  2  0
  4  1  1  0
  5  4  2  0
  6  5  1  0
  7  5  1  0
  8  1  1  0
  9  2  1  0
 10  9  1  0
 11  7  1  0
 11  8  1  0
 12 10  2  3
 13 12  1  0
 14 13  2  0
 15 13  1  0
 16  9  2  0
 17  6  1  0
 18  3  1  0
 19 16  1  0
 19 18  2  0
M  END
>  <ID>  (1) 
conformer_0

$$$$
