
     RDKit          3D

 15 16  0  0  0  0  0  0  0  0999 V2000
    3.7478   -0.7455    0.9673 N   0  0  0  0  0  0  0  0  0  0  0  0
    2.6478   -1.5455    1.1673 C   0  0  0  0  0  0  0  0  0  0  0  0
    2.4478   -2.4455    2.0673 C   0  0  0  0  0  0  0  0  0  0  0  0
    1.1478   -2.8455    2.4673 N   0  0  0  0  0  0  0  0  0  0  0  0
    3.4478   -3.0455    2.5673 N   0  0  0  0  0  0  0  0  0  0  0  0
    4.8478   -1.4455    1.3673 C   0  0  0  0  0  0  0  0  0  0  0  0
    4.7478   -2.5455    2.2673 C   0  0  0  0  0  0  0  0  0  0  0  0
    3.9478   -0.0455   -0.2327 N   0  0  0  0  0  0  0  0  0  0  0  0
    2.5478    0.1545   -0.7327 C   0  0  0  0  0  0  0  0  0  0  0  0
    1.8478    0.7545    0.3673 C   0  0  0  0  0  0  0  0  0  0  0  0
    1.9478    2.1545    0.5673 C   0  0  0  0  0  0  0  0  0  0  0  0
    0.8478    2.9545   -0.0327 C   0  0  0  0  0  0  0  0  0  0  0  0
   -0.1522    1.9545   -0.5327 C   0  0  0  0  0  0  0  0  0  0  0  0
    0.3478    0.6545   -0.2327 O   0  0  0  0  0  0  0  0  0  0  0  0
    0.6478    4.1545   -0.2327 O   0  0  0  0  0  0  0  0  0  0  0  0
  2  1  1  0
  3  2  1  0
  4  3  1  0
  5  3  2  0
  6  1  1  0
  7  5  1  0
  7  6  2  0
  8  1  1  0
  9  8  1  0
 10  9  1  0
 11 10  1  0
 12 11  1  0
 13 12  1  0
 14 10  1  0
 14 13  1  0
 15 12  2  0
M  END
>  <ID>  (1) 
conformer_0

$$$$
