
     RDKit          3D

 25 27  0  0  0  0  0  0  0  0999 V2000
    3.1039   -0.6939    0.5525 N   0  0  0  0  0  0  0  0  0  0  0  0
    2.8039   -1.7939    1.3525 C   0  0  0  0  0  0  0  0  0  0  0  0
    1.6039   -2.1939    1.5525 N   0  0  0  0  0  0  0  0  0  0  0  0
    1.9039    0.0061    0.1525 C   0  0  0  0  0  0  0  0  0  0  0  0
    2.0039    1.4061    0.4525 C   0  0  0  0  0  0  0  0  0  0  0  0
    1.0039    2.3061   -0.0475 C   0  0  0  0  0  0  0  0  0  0  0  0
    3.2039    1.8061    1.2525 C   0  0  0  0  0  0  0  0  0  0  0  0
    4.3039   -0.0939    0.3525 N   0  0  0  0  0  0  0  0  0  0  0  0
    3.9039   -2.2939    2.0525 C   0  0  0  0  0  0  0  0  0  0  0  0
    3.4039   -3.2939    2.8525 N   0  0  0  0  0  0  0  0  0  0  0  0
    5.2039   -1.8939    1.6525 C   0  0  0  0  0  0  0  0  0  0  0  0
    5.3039   -0.8939    0.8525 C   0  0  0  0  0  0  0  0  0  0  0  0
    3.6039    3.1061    1.4525 C   0  0  0  0  0  0  0  0  0  0  0  0
    2.3039   -3.8939    2.9525 N   0  0  0  0  0  0  0  0  0  0  0  0
    6.3039   -2.1939    2.5525 C   0  0  0  0  0  0  0  0  0  0  0  0
    7.5039   -2.1939    1.8525 N   0  0  0  0  0  0  0  0  0  0  0  0
    7.4039   -1.2939    0.8525 N   0  0  0  0  0  0  0  0  0  0  0  0
    8.7039   -2.6939    2.1525 C   0  0  0  0  0  0  0  0  0  0  0  0
    1.9039   -2.7939    2.7525 C   0  0  0  0  0  0  0  0  0  0  0  0
    9.6039   -3.5939    1.4525 C   0  0  0  0  0  0  0  0  0  0  0  0
    3.7039    4.4061    1.0525 O   0  0  0  0  0  0  0  0  0  0  0  0
    6.3039   -2.6939    3.7525 O   0  0  0  0  0  0  0  0  0  0  0  0
    7.6039   -0.6939    1.7525 C   0  0  0  0  0  0  0  0  0  0  0  0
    1.4039    3.7061   -0.3475 O   0  0  0  0  0  0  0  0  0  0  0  0
    9.7039   -1.9939    1.3525 C   0  0  0  0  0  0  0  0  0  0  0  0
  2  1  1  0
  3  2  1  0
  4  1  1  0
  5  4  1  0
  6  5  1  0
  7  5  2  3
  8  1  1  0
  9  2  1  0
 10  9  1  0
 11  9  2  0
 12  8  2  0
 12 11  1  0
 13  7  1  0
 15 11  1  0
 16 15  1  0
 17 16  1  0
 18 16  1  0
 19  3  2  0
 19 10  1  0
 19 14  1  0
 20 18  1  0
 21 13  1  0
 22 15  2  0
 23 17  2  0
 24  6  1  0
 25 18  1  0
 25 20  1  0
M  END
>  <ID>  (1) 
conformer_0

$$$$
