
     RDKit          3D

 30 35  0  0  0  0  0  0  0  0999 V2000
    3.1039   -0.6939    0.5525 N   0  0  0  0  0  4  0  0  0  0  0  0
    2.8039   -1.7939    1.3525 C   0  0  0  0  0  3  0  0  0  0  0  0
    1.6039   -2.1939    1.4525 N   0  0  0  0  0  0  0  0  0  0  0  0
    1.9039   -0.0939   -0.0475 C   0  0  0  0  0  0  0  0  0  0  0  0
    2.0039    1.3061    0.0525 C   0  0  0  0  0  0  0  0  0  0  0  0
    4.1039    0.2061    0.7525 N   0  0  0  0  0  0  0  0  0  0  0  0
    2.6039    2.1061    0.8525 C   0  0  0  0  0  0  0  0  0  0  0  0
    3.8039   -2.3939    2.1525 C   0  0  0  0  0  0  0  0  0  0  0  0
    3.7039    2.7061    1.4525 C   0  0  0  0  0  0  0  0  0  0  0  0
    3.2039   -3.2939    2.9525 N   0  0  0  0  0  0  0  0  0  0  0  0
    2.2039   -2.6939    3.5525 N   0  0  0  0  0  0  0  0  0  0  0  0
    5.1039   -1.8939    1.7525 C   0  0  0  0  0  0  0  0  0  0  0  0
    6.3039   -2.0939    2.1525 N   0  0  0  0  0  0  0  0  0  0  0  0
    0.8039    2.0061   -0.4475 C   0  0  0  0  0  0  0  0  0  0  0  0
    0.8039    3.2061   -0.5475 N   0  0  0  0  0  0  0  0  0  0  0  0
    2.1039   -3.7939    2.9525 C   0  0  0  0  0  0  0  0  0  0  0  0
    7.4039   -1.5939    1.4525 C   0  0  0  0  0  0  0  0  0  0  0  0
    7.6039   -0.4939    0.9525 O   0  0  0  0  0  0  0  0  0  0  0  0
    2.7039    3.5061    0.7525 C   0  0  0  0  0  0  0  0  0  0  0  0
    4.8039   -0.8939    0.7525 C   0  0  0  0  0  0  0  0  0  0  0  0
    8.5039   -2.5939    1.4525 C   0  0  0  0  0  0  0  0  0  0  0  0
    1.8039    3.9061   -0.0475 O   0  0  0  0  0  0  0  0  0  0  0  0
    4.1039    3.2061    2.6525 O   0  0  0  0  0  0  0  0  0  0  0  0
    5.3039    2.8061    3.4525 P   0  0  0  0  0  4  0  0  0  0  0  0
    5.2039    3.7061    4.5525 O   0  0  0  0  0  1  0  0  0  0  0  0
    6.3039    2.7061    2.3525 O   0  0  0  0  0  0  0  0  0  0  0  0
    4.8039    1.4061    3.6525 O   0  0  0  0  0  0  0  0  0  0  0  0
    1.3039   -2.7939    2.5525 C   0  0  0  0  0  0  0  0  0  0  0  0
    8.2039   -3.6939    2.3525 C   0  0  0  0  0  0  0  0  0  0  0  0
    6.7039   -3.2939    2.8525 C   0  0  0  0  0  0  0  0  0  0  0  0
  2  1  1  0
  3  2  1  0
  4  1  1  0
  5  4  1  0
  7  5  1  0
  8  2  1  0
  9  7  1  0
 10  8  1  0
 12  8  2  0
 13 12  1  0
 14  5  2  0
 15 14  1  0
 16 10  1  0
 16 11  1  0
 17 13  1  0
 18 17  2  0
 19  7  2  0
 19  9  1  0
 20  1  1  0
 20  6  1  0
 20 12  1  0
 21 17  1  0
 22 15  1  0
 22 19  1  0
 23  9  1  0
 24 23  1  0
 25 24  2  0
 26 24  1  0
 27 24  1  0
 28  3  2  0
 28 11  1  0
 28 16  1  0
 29 21  1  0
 30 13  1  0
 30 29  2  0
M  END
>  <ID>  (1) 
conformer_0

$$$$
