
     RDKit          3D

 17 18  0  0  0  0  0  0  0  0999 V2000
    3.1039   -0.6939    0.5525 N   0  0  0  0  0  4  0  0  0  0  0  0
    2.8039   -1.7939    1.3525 C   0  0  0  0  0  0  0  0  0  0  0  0
    1.6039   -2.1939    1.5525 N   0  0  0  0  0  0  0  0  0  0  0  0
    1.9039    0.0061    0.1525 C   0  0  0  0  0  0  0  0  0  0  0  0
    2.0039    1.4061    0.4525 C   0  0  0  0  0  0  0  0  0  0  0  0
    1.0039    2.3061   -0.0475 C   0  0  0  0  0  0  0  0  0  0  0  0
    3.2039    1.8061    1.0525 C   0  0  0  0  0  0  0  0  0  0  0  0
    4.3039   -0.1939    0.3525 N   0  0  0  0  0  0  0  0  0  0  0  0
    3.8039   -2.2939    2.0525 C   0  0  0  0  0  0  0  0  0  0  0  0
    3.3039   -3.2939    2.8525 N   0  0  0  0  0  0  0  0  0  0  0  0
    2.2039   -2.6939    3.5525 N   0  0  0  0  0  0  0  0  0  0  0  0
    3.9039    0.4061    1.2525 C   0  0  0  0  0  0  0  0  0  0  0  0
    3.7039    2.8061    1.8525 C   0  0  0  0  0  0  0  0  0  0  0  0
    1.1039    3.7061   -0.4475 O   0  0  0  0  0  0  0  0  0  0  0  0
    4.2039   -3.5939    3.9525 C   0  0  0  0  0  0  0  0  0  0  0  0
    4.0039    3.7061    2.7525 O   0  0  0  0  0  0  0  0  0  0  0  0
    1.4039   -2.8939    2.5525 C   0  0  0  0  0  0  0  0  0  0  0  0
  2  1  1  0
  3  2  2  0
  4  1  1  0
  5  4  2  0
  6  5  1  0
  7  5  1  0
  9  2  1  0
 10  9  1  0
 11 10  1  0
 12  1  1  0
 12  7  1  0
 12  8  1  0
 13  7  2  0
 14  6  1  0
 15 10  1  0
 16 13  2  0
 17  3  1  0
 17 11  2  0
M  END
>  <ID>  (1) 
conformer_0

$$$$
