
     RDKit          3D

 28 32  0  0  0  0  0  0  0  0999 V2000
    3.1039   -0.6939    0.5525 N   0  0  0  0  0  0  0  0  0  0  0  0
    2.8039   -1.7939    1.3525 C   0  0  0  0  0  0  0  0  0  0  0  0
    1.6039   -2.1939    1.5525 N   0  0  0  0  0  0  0  0  0  0  0  0
    1.9039    0.0061    0.1525 C   0  0  0  0  0  0  0  0  0  0  0  0
    2.0039    1.4061    0.4525 C   0  0  0  0  0  0  0  0  0  0  0  0
    1.0039    2.3061   -0.0475 C   0  0  0  0  0  0  0  0  0  0  0  0
    3.2039    1.8061    1.0525 C   0  0  0  0  0  0  0  0  0  0  0  0
    4.3039   -0.1939    0.3525 N   0  0  0  0  0  0  0  0  0  0  0  0
    3.8039   -2.2939    2.0525 C   0  0  0  0  0  0  0  0  0  0  0  0
    3.3039   -3.2939    2.8525 N   0  0  0  0  0  0  0  0  0  0  0  0
    5.2039   -1.9939    1.8525 C   0  0  0  0  0  0  0  0  0  0  0  0
    5.4039   -0.9939    0.9525 C   0  0  0  0  0  0  0  0  0  0  0  0
    1.8039   -3.1939    2.5525 C   0  0  0  0  0  0  0  0  0  0  0  0
    3.4039    3.1061    1.5525 C   0  0  0  0  0  0  0  0  0  0  0  0
    6.3039   -2.5939    2.5525 C   0  0  0  0  0  0  0  0  0  0  0  0
    7.5039   -2.4939    1.7525 C   0  0  0  0  0  0  0  0  0  0  0  0
    7.7039   -1.3939    1.1525 N   0  0  0  0  0  0  0  0  0  0  0  0
    6.6039   -2.5939    3.9525 C   0  0  0  0  0  0  0  0  0  0  0  0
    8.6039   -2.9939    2.4525 N   0  0  0  0  0  0  0  0  0  0  0  0
    9.9039   -2.3939    2.4525 C   0  0  0  0  0  0  0  0  0  0  0  0
    8.1039   -2.9939    3.8525 N   0  0  0  0  0  0  0  0  0  0  0  0
    3.8039    4.4061    1.3525 O   0  0  0  0  0  0  0  0  0  0  0  0
    0.1039    3.1061   -0.3475 C   0  0  0  0  0  0  0  0  0  0  0  0
    3.4039   -4.0939    3.9525 N   0  0  0  0  0  0  0  0  0  0  0  0
    4.7039   -4.2939    4.6525 C   0  0  0  0  0  0  0  0  0  0  0  0
    0.8039   -0.5939    0.0525 O   0  0  0  0  0  0  0  0  0  0  0  0
    6.8039   -0.4939    0.8525 C   0  0  0  0  0  0  0  0  0  0  0  0
    5.7039   -3.2939    4.8525 C   0  0  0  0  0  0  0  0  0  0  0  0
  2  1  1  0
  3  2  1  0
  4  1  1  0
  5  4  1  0
  6  5  1  0
  7  5  1  0
  8  1  1  0
  9  2  2  0
 10  9  1  0
 11  9  1  0
 12  8  2  0
 12 11  1  0
 13  3  2  0
 13 10  1  0
 14  7  1  0
 15 11  1  0
 16 15  2  0
 17 16  1  0
 18 15  1  0
 19 16  1  0
 20 19  1  0
 21 18  2  0
 21 19  1  0
 22 14  1  0
 23  6  3  0
 24 10  1  0
 25 24  1  0
 26  4  2  0
 27 12  1  0
 27 17  2  0
 28 18  1  0
 28 25  1  0
M  END
>  <ID>  (1) 
conformer_0

$$$$
