
     RDKit          3D

 30 35  0  0  0  0  0  0  0  0999 V2000
    3.1039   -0.6939    0.5525 N   0  0  0  0  0  4  0  0  0  0  0  0
    2.8039   -1.7939    1.3525 C   0  0  0  0  0  3  0  0  0  0  0  0
    1.6039   -2.1939    1.4525 N   0  0  0  0  0  0  0  0  0  0  0  0
    1.9039   -0.0939   -0.0475 C   0  0  0  0  0  0  0  0  0  0  0  0
    2.0039    1.3061    0.0525 C   0  0  0  0  0  0  0  0  0  0  0  0
    4.1039    0.2061    0.7525 N   0  0  0  0  0  0  0  0  0  0  0  0
    2.6039    2.1061    0.8525 C   0  0  0  0  0  0  0  0  0  0  0  0
    3.8039   -2.3939    2.1525 C   0  0  0  0  0  0  0  0  0  0  0  0
    3.1039   -3.2939    2.9525 N   0  0  0  0  0  0  0  0  0  0  0  0
    3.6039    2.6061    1.5525 C   0  0  0  0  0  0  0  0  0  0  0  0
    2.1039   -2.6939    3.5525 N   0  0  0  0  0  0  0  0  0  0  0  0
    5.1039   -2.0939    1.8525 C   0  0  0  0  0  0  0  0  0  0  0  0
    6.3039   -2.1939    2.1525 N   0  0  0  0  0  0  0  0  0  0  0  0
    0.8039    1.8061   -0.5475 C   0  0  0  0  0  0  0  0  0  0  0  0
    0.4039    3.0061   -0.1475 C   0  0  0  0  0  0  0  0  0  0  0  0
    1.7039   -2.9939    2.5525 C   0  0  0  0  0  0  0  0  0  0  0  0
    7.5039   -1.7939    1.4525 C   0  0  0  0  0  0  0  0  0  0  0  0
    0.0039    4.0061   -0.7475 O   0  0  0  0  0  0  0  0  0  0  0  0
    7.4039   -1.0939    0.4525 O   0  0  0  0  0  0  0  0  0  0  0  0
    8.5039   -2.8939    1.5525 C   0  0  0  0  0  0  0  0  0  0  0  0
    3.6039    3.6061    2.5525 O   0  0  0  0  0  0  0  0  0  0  0  0
    4.7039   -0.8939    0.8525 C   0  0  0  0  0  0  0  0  0  0  0  0
    5.0039    4.0061    2.7525 P   0  0  0  0  0  4  0  0  0  0  0  0
    5.4039    4.6061    4.0525 O   0  0  0  0  0  1  0  0  0  0  0  0
    5.9039    3.3061    1.8525 O   0  0  0  0  0  0  0  0  0  0  0  0
    4.9039    5.1061    1.7525 O   0  0  0  0  0  0  0  0  0  0  0  0
    1.3039    3.9061   -0.0475 C   0  0  0  0  0  0  0  0  0  0  0  0
    2.5039    3.5061    0.4525 C   0  0  0  0  0  0  0  0  0  0  0  0
    8.3039   -3.4939    2.8525 C   0  0  0  0  0  0  0  0  0  0  0  0
    6.7039   -3.3939    2.9525 C   0  0  0  0  0  0  0  0  0  0  0  0
  2  1  1  0
  3  2  1  0
  4  1  1  0
  5  4  1  0
  7  5  2  0
  8  2  1  0
  9  8  1  0
 10  7  1  0
 12  8  2  0
 13 12  1  0
 14  5  1  0
 15 14  2  0
 16  3  2  0
 16  9  1  0
 16 11  1  0
 17 13  1  0
 18 15  1  0
 19 17  2  0
 20 17  1  0
 21 10  1  0
 22  1  1  0
 22  6  1  0
 22 12  1  0
 23 21  1  0
 24 23  2  0
 25 23  1  0
 26 23  1  0
 27 15  1  0
 27 18  1  0
 28  7  1  0
 28 10  1  0
 28 27  2  0
 29 20  1  0
 30 13  1  0
 30 29  1  0
M  END
>  <ID>  (1) 
conformer_0

$$$$
