
     RDKit          3D

 21 22  0  0  0  0  0  0  0  0999 V2000
    3.1039   -0.6939    0.5525 N   0  0  0  0  0  4  0  0  0  0  0  0
    2.8039   -1.7939    1.3525 C   0  0  0  0  0  3  0  0  0  0  0  0
    1.6039   -2.1939    1.4525 N   0  0  0  0  0  0  0  0  0  0  0  0
    1.9039   -0.0939   -0.0475 C   0  0  0  0  0  0  0  0  0  0  0  0
    2.0039    1.3061    0.0525 C   0  0  0  0  0  0  0  0  0  0  0  0
    4.1039    0.2061    0.7525 N   0  0  0  0  0  0  0  0  0  0  0  0
    2.6039    2.1061    0.8525 C   0  0  0  0  0  0  0  0  0  0  0  0
    4.0039   -2.2939    1.9525 C   0  0  0  0  0  0  0  0  0  0  0  0
    5.1039   -1.6939    1.4525 C   0  0  0  0  0  0  0  0  0  0  0  0
    6.3039   -1.7939    1.8525 N   0  0  0  0  0  0  0  0  0  0  0  0
    3.7039    2.5061    1.5525 C   0  0  0  0  0  0  0  0  0  0  0  0
    7.4039   -1.1939    1.0525 C   0  0  0  0  0  0  0  0  0  0  0  0
    8.5039   -2.0939    0.6525 C   0  0  0  0  0  0  0  0  0  0  0  0
    0.7039    1.8061   -0.4475 C   0  0  0  0  0  0  0  0  0  0  0  0
    0.9039    3.2061   -0.4475 O   0  0  0  0  0  0  0  0  0  0  0  0
    9.0039   -3.0939    1.6525 C   0  0  0  0  0  0  0  0  0  0  0  0
    4.7039   -0.7939    0.4525 C   0  0  0  0  0  0  0  0  0  0  0  0
   10.0039   -3.7939    1.0525 O   0  0  0  0  0  0  0  0  0  0  0  0
    3.9039    3.9061    1.5525 O   0  0  0  0  0  0  0  0  0  0  0  0
    1.1039   -2.8939    2.4525 O   0  0  0  0  0  0  0  0  0  0  0  0
    1.9039    3.6061    0.4525 C   0  0  0  0  0  0  0  0  0  0  0  0
  2  1  1  0
  3  2  1  0
  4  1  1  0
  5  4  1  0
  7  5  1  0
  8  2  1  0
  9  8  2  0
 10  9  1  0
 11  7  1  0
 12 10  1  0
 13 12  1  0
 14  5  1  0
 15 14  1  0
 16 13  1  0
 17  1  1  0
 17  6  1  0
 17  9  1  0
 18 16  1  0
 19 11  1  0
 20  3  1  0
 21  7  1  0
 21 15  1  0
M  END
>  <ID>  (1) 
conformer_0

$$$$
