
     RDKit          3D

 20 22  0  0  0  0  0  0  0  0999 V2000
    1.1862   -2.7694    2.2724 N   0  0  0  0  0  0  0  0  0  0  0  0
    2.2862   -2.1694    1.6724 C   0  0  0  0  0  0  0  0  0  0  0  0
    3.5862   -2.4694    1.9724 C   0  0  0  0  0  0  0  0  0  0  0  0
    4.5862   -1.7694    1.4724 C   0  0  0  0  0  0  0  0  0  0  0  0
    5.8862   -1.8694    1.7724 N   0  0  0  0  0  0  0  0  0  0  0  0
    1.8862   -1.2694    0.7724 N   0  0  0  0  0  0  0  0  0  0  0  0
    2.8862   -0.1694    0.5724 C   0  0  0  0  0  0  0  0  0  0  0  0
    4.1862   -0.5694    0.8724 N   0  0  0  0  0  0  0  0  0  0  0  0
    2.3862    1.1306    0.2724 C   0  0  0  0  0  0  0  0  0  0  0  0
    2.5862    2.3306    0.9724 C   0  0  0  0  0  0  0  0  0  0  0  0
    0.9862    0.8306   -0.1276 C   0  0  0  0  0  0  0  0  0  0  0  0
    0.2862    2.0306   -0.6276 C   0  0  0  0  0  0  0  0  0  0  0  0
    1.0862    3.0306   -0.6276 N   0  0  0  0  0  0  0  0  0  0  0  0
    1.8862    3.4306    0.3724 C   0  0  0  0  0  0  0  0  0  0  0  0
    6.9862   -1.1694    1.3724 C   0  0  0  0  0  0  0  0  0  0  0  0
    8.3862   -1.6694    1.2724 C   0  0  0  0  0  0  0  0  0  0  0  0
    6.9862    0.2306    1.8724 C   0  0  0  0  0  0  0  0  0  0  0  0
    8.3862    0.7306    1.9724 C   0  0  0  0  0  0  0  0  0  0  0  0
    8.4862    2.0306    1.3724 O   0  0  0  0  0  0  0  0  0  0  0  0
    9.0862   -0.2694    1.1724 C   0  0  0  0  0  0  0  0  0  0  0  0
  2  1  1  0
  3  2  2  0
  4  3  1  0
  5  4  1  0
  6  2  1  0
  7  6  2  0
  8  4  2  0
  8  7  1  0
  9  7  1  0
 10  9  2  0
 11  9  1  0
 12 11  2  0
 13 12  1  0
 14 10  1  0
 14 13  2  0
 15  5  1  0
 16 15  1  0
 17 15  1  0
 18 17  1  0
 19 18  1  0
 20 16  1  0
 20 18  1  0
M  END
>  <ID>  (1) 
conformer_0

$$$$
