
     RDKit          3D

 25 27  0  0  0  0  0  0  0  0999 V2000
    3.1039   -0.6939    0.5525 N   0  0  0  0  0  0  0  0  0  0  0  0
    2.8039   -1.7939    1.3525 C   0  0  0  0  0  0  0  0  0  0  0  0
    1.6039   -2.1939    1.5525 N   0  0  0  0  0  0  0  0  0  0  0  0
    1.9039    0.0061    0.1525 C   0  0  0  0  0  0  0  0  0  0  0  0
    2.0039    1.4061    0.4525 C   0  0  0  0  0  0  0  0  0  0  0  0
    1.0039    2.3061   -0.0475 C   0  0  0  0  0  0  0  0  0  0  0  0
    3.2039    1.8061    1.0525 C   0  0  0  0  0  0  0  0  0  0  0  0
    4.3039   -0.2939    0.2525 N   0  0  0  0  0  0  0  0  0  0  0  0
    3.8039   -2.2939    2.0525 C   0  0  0  0  0  0  0  0  0  0  0  0
    3.3039   -3.2939    2.8525 N   0  0  0  0  0  0  0  0  0  0  0  0
    3.5039    3.0061    1.6525 C   0  0  0  0  0  0  0  0  0  0  0  0
    2.3039   -2.6939    3.5525 N   0  0  0  0  0  0  0  0  0  0  0  0
    5.1039   -1.9939    1.7525 C   0  0  0  0  0  0  0  0  0  0  0  0
    5.3039   -0.9939    0.8525 C   0  0  0  0  0  0  0  0  0  0  0  0
    1.8039   -3.1939    2.5525 C   0  0  0  0  0  0  0  0  0  0  0  0
    4.3039    3.4061    2.7525 O   0  0  0  0  0  0  0  0  0  0  0  0
    5.6039    3.3061    3.2525 P   0  0  0  0  0  4  0  0  0  0  0  0
    6.5039    2.7061    2.3525 O   0  0  0  0  0  1  0  0  0  0  0  0
    5.7039    4.1061    4.4525 O   0  0  0  0  0  0  0  0  0  0  0  0
    0.1039    1.8061   -1.0475 O   0  0  0  0  0  0  0  0  0  0  0  0
   -0.8961    2.7061   -1.3475 C   0  0  0  0  0  0  0  0  0  0  0  0
    2.3039    0.7061   -0.9475 C   0  0  0  0  0  0  0  0  0  0  0  0
    5.1039    2.1061    3.9525 O   0  0  0  0  0  0  0  0  0  0  0  0
    5.9039    1.2061    4.7525 C   0  0  0  0  0  0  0  0  0  0  0  0
    5.1039    0.1061    5.3525 C   0  0  0  0  0  0  0  0  0  0  0  0
  2  1  1  0
  3  2  1  0
  4  1  1  0
  5  4  1  0
  6  5  1  0
  7  5  1  0
  8  1  1  0
  9  2  1  0
 10  9  1  0
 11  7  1  0
 13  9  2  0
 14  8  2  0
 14 13  1  0
 15  3  2  0
 15 10  1  0
 15 12  1  0
 16 11  1  0
 17 16  1  0
 18 17  2  0
 19 17  1  0
 20  6  1  0
 21 20  1  0
 22  4  1  0
 22  5  1  0
 23 17  1  0
 24 23  1  0
 25 24  1  0
M  END
>  <ID>  (1) 
conformer_0

$$$$
