
     RDKit          3D

 30 34  0  0  0  0  0  0  0  0999 V2000
    3.1039   -0.6939    0.5525 N   0  0  0  0  0  0  0  0  0  0  0  0
    2.8039   -1.7939    1.3525 C   0  0  0  0  0  0  0  0  0  0  0  0
    1.6039   -2.1939    1.5525 N   0  0  0  0  0  0  0  0  0  0  0  0
    1.9039    0.0061    0.1525 C   0  0  0  0  0  0  0  0  0  0  0  0
    2.0039    1.4061    0.4525 C   0  0  0  0  0  0  0  0  0  0  0  0
    1.0039    2.3061   -0.0475 C   0  0  0  0  0  0  0  0  0  0  0  0
    3.2039    1.8061    1.0525 C   0  0  0  0  0  0  0  0  0  0  0  0
    4.3039   -0.1939    0.3525 N   0  0  0  0  0  0  0  0  0  0  0  0
    4.0039   -2.2939    1.9525 C   0  0  0  0  0  0  0  0  0  0  0  0
    5.2039   -1.7939    1.6525 C   0  0  0  0  0  0  0  0  0  0  0  0
    4.0039    0.4061    1.2525 C   0  0  0  0  0  0  0  0  0  0  0  0
    6.4039   -2.0939    2.2525 N   0  0  0  0  0  0  0  0  0  0  0  0
    7.7039   -2.4939    1.7525 C   0  0  0  0  0  0  0  0  0  0  0  0
    8.1039   -1.6939    0.5525 C   0  0  0  0  0  0  0  0  0  0  0  0
    6.1039   -0.7939    1.8525 C   0  0  0  0  0  0  0  0  0  0  0  0
    8.6039   -1.1939    1.8525 C   0  0  0  0  0  0  0  0  0  0  0  0
    1.2039    3.6061   -0.4475 O   0  0  0  0  0  0  0  0  0  0  0  0
    1.6039   -3.0939    2.4525 C   0  0  0  0  0  0  0  0  0  0  0  0
    3.8039   -3.2939    2.8525 N   0  0  0  0  0  0  0  0  0  0  0  0
    2.6039   -3.7939    3.0525 C   0  0  0  0  0  0  0  0  0  0  0  0
    8.4039   -0.0939    2.7525 O   0  0  0  0  0  0  0  0  0  0  0  0
    9.3039    0.8061    3.0525 C   0  0  0  0  0  0  0  0  0  0  0  0
    9.4039    2.2061    2.9525 C   0  0  0  0  0  0  0  0  0  0  0  0
    9.0039    3.2061    3.7525 O   0  0  0  0  0  0  0  0  0  0  0  0
   10.6039    0.2061    2.6525 O   0  0  0  0  0  0  0  0  0  0  0  0
   11.5039    1.2061    2.0525 C   0  0  0  0  0  0  0  0  0  0  0  0
   10.9039    2.5061    2.4525 C   0  0  0  0  0  0  0  0  0  0  0  0
   11.6039    3.5061    2.8525 O   0  0  0  0  0  0  0  0  0  0  0  0
   11.7039    0.9061    0.6525 C   0  0  0  0  0  0  0  0  0  0  0  0
   11.0039   -0.1939    0.0525 O   0  0  0  0  0  0  0  0  0  0  0  0
  2  1  1  0
  3  2  2  0
  4  1  1  0
  5  4  2  0
  6  5  1  0
  7  5  1  0
  8  1  1  0
  9  2  1  0
 10  9  1  0
 11  7  1  0
 11  8  1  0
 12 10  1  0
 13 12  1  0
 14 13  1  0
 15 10  1  0
 15 12  1  0
 16 13  1  0
 16 14  1  0
 17  6  1  0
 18  3  1  0
 19  9  2  0
 20 18  2  0
 20 19  1  0
 21 16  1  0
 22 21  1  0
 23 22  1  0
 24 23  1  0
 25 22  1  0
 26 25  1  0
 27 23  1  0
 27 26  1  0
 28 27  2  0
 29 26  1  0
 30 29  1  0
M  END
>  <ID>  (1) 
conformer_0

$$$$
