
     RDKit          3D

 31 36  0  0  0  0  0  0  0  0999 V2000
    3.1039   -0.6939    0.5525 N   0  0  0  0  0  0  0  0  0  0  0  0
    2.8039   -1.7939    1.3525 C   0  0  0  0  0  0  0  0  0  0  0  0
    1.6039   -2.1939    1.4525 N   0  0  0  0  0  0  0  0  0  0  0  0
    1.9039   -0.0939   -0.0475 C   0  0  0  0  0  0  0  0  0  0  0  0
    2.0039    1.3061    0.0525 C   0  0  0  0  0  0  0  0  0  0  0  0
    4.1039    0.2061    0.7525 N   0  0  0  0  0  0  0  0  0  0  0  0
    2.6039    2.1061    0.8525 C   0  0  0  0  0  0  0  0  0  0  0  0
    3.8039   -2.3939    2.1525 C   0  0  0  0  0  0  0  0  0  0  0  0
    3.1039   -3.2939    2.9525 N   0  0  0  0  0  0  0  0  0  0  0  0
    3.6039    2.6061    1.5525 C   0  0  0  0  0  0  0  0  0  0  0  0
    2.1039   -2.6939    3.5525 N   0  0  0  0  0  0  0  0  0  0  0  0
    5.1039   -2.0939    1.8525 C   0  0  0  0  0  0  0  0  0  0  0  0
    6.2039   -1.4939    2.3525 N   0  0  0  0  0  0  0  0  0  0  0  0
    7.3039   -1.3939    1.4525 C   0  0  0  0  0  0  0  0  0  0  0  0
    1.7039   -3.1939    2.5525 C   0  0  0  0  0  0  0  0  0  0  0  0
    0.8039    1.8061   -0.6475 C   0  0  0  0  0  0  0  0  0  0  0  0
    0.3039    3.0061   -0.3475 C   0  0  0  0  0  0  0  0  0  0  0  0
    7.3039   -0.7939    0.4525 O   0  0  0  0  0  0  0  0  0  0  0  0
    8.5039   -2.1939    1.7525 C   0  0  0  0  0  0  0  0  0  0  0  0
    0.0039    4.1061   -0.6475 O   0  0  0  0  0  0  0  0  0  0  0  0
    4.6039    2.7061    2.4525 O   0  0  0  0  0  0  0  0  0  0  0  0
    5.1039   -0.6939    1.5525 C   0  0  0  0  0  0  0  0  0  0  0  0
    5.3039    3.8061    3.0525 P   0  0  0  0  0  4  0  0  0  0  0  0
    5.1039    4.6061    4.2525 O   0  0  0  0  0  1  0  0  0  0  0  0
    6.7039    3.4061    2.8525 O   0  0  0  0  0  0  0  0  0  0  0  0
    4.9039    4.9061    2.1525 O   0  0  0  0  0  0  0  0  0  0  0  0
    9.2039   -2.3939    0.4525 C   0  0  0  0  0  0  0  0  0  0  0  0
    9.9039   -3.6939    0.6525 O   0  0  0  0  0  0  0  0  0  0  0  0
    9.3039   -1.9939    2.8525 O   0  0  0  0  0  0  0  0  0  0  0  0
    1.3039    3.9061    0.0525 C   0  0  0  0  0  0  0  0  0  0  0  0
    2.1039    3.4061    0.9525 C   0  0  0  0  0  0  0  0  0  0  0  0
  2  1  1  0
  3  2  1  0
  4  1  1  0
  5  4  1  0
  6  1  1  0
  7  5  2  0
  8  2  1  0
  9  8  1  0
 10  7  1  0
 12  8  2  0
 13 12  1  0
 14 13  1  0
 15  3  2  0
 15  9  1  0
 15 11  1  0
 16  5  1  0
 17 16  2  0
 18 14  2  0
 19 14  1  0
 20 17  1  0
 21 10  1  0
 22  6  2  0
 22 12  1  0
 22 13  1  0
 23 21  1  0
 24 23  2  0
 25 23  1  0
 26 23  1  0
 27 19  1  0
 28 27  1  0
 29 19  1  0
 30 17  1  0
 30 20  1  0
 31  7  1  0
 31 10  1  0
 31 30  2  0
M  END
>  <ID>  (1) 
conformer_0

$$$$
