
     RDKit          3D

 20 23  0  0  0  0  0  0  0  0999 V2000
    3.1039   -0.6939    0.5525 N   0  0  0  0  0  4  0  0  0  0  0  0
    2.8039   -1.7939    1.3525 C   0  0  0  0  0  0  0  0  0  0  0  0
    1.6039   -2.1939    1.5525 N   0  0  0  0  0  0  0  0  0  0  0  0
    1.9039    0.0061    0.1525 C   0  0  0  0  0  0  0  0  0  0  0  0
    2.0039    1.4061    0.4525 C   0  0  0  0  0  0  0  0  0  0  0  0
    1.0039    2.3061   -0.0475 C   0  0  0  0  0  0  0  0  0  0  0  0
    3.2039    1.8061    1.0525 C   0  0  0  0  0  0  0  0  0  0  0  0
    4.3039   -0.2939    0.2525 N   0  0  0  0  0  0  0  0  0  0  0  0
    3.8039   -2.2939    2.0525 C   0  0  0  0  0  0  0  0  0  0  0  0
    3.3039   -3.3939    2.7525 N   0  0  0  0  0  0  0  0  0  0  0  0
    5.2039   -2.0939    1.7525 C   0  0  0  0  0  0  0  0  0  0  0  0
    4.5039   -4.0939    3.0525 N   0  0  0  0  0  0  0  0  0  0  0  0
    3.9039    0.4061    1.3525 C   0  0  0  0  0  0  0  0  0  0  0  0
    6.2039   -2.5939    2.4525 N   0  0  0  0  0  0  0  0  0  0  0  0
    5.7039   -3.8939    3.0525 C   0  0  0  0  0  0  0  0  0  0  0  0
    1.5039    3.5061   -0.3475 O   0  0  0  0  0  0  0  0  0  0  0  0
    1.7039   -3.1939    2.6525 C   0  0  0  0  0  0  0  0  0  0  0  0
    6.7039   -4.8939    3.3525 C   0  0  0  0  0  0  0  0  0  0  0  0
    5.4039   -1.0939    0.8525 C   0  0  0  0  0  0  0  0  0  0  0  0
   -0.2961    2.0061   -0.5475 C   0  0  0  0  0  0  0  0  0  0  0  0
  2  1  1  0
  3  2  1  0
  4  1  1  0
  5  4  2  0
  6  5  1  0
  7  5  1  0
  9  2  2  0
 10  9  1  0
 11  9  1  0
 12 10  1  0
 13  1  1  0
 13  7  1  0
 13  8  1  0
 14 11  1  0
 15 12  2  0
 15 14  1  0
 16  6  1  0
 17  3  2  0
 17 10  1  0
 18 15  1  0
 19  8  1  0
 19 11  2  0
 20  6  1  0
M  END
>  <ID>  (1) 
conformer_0

$$$$
