
     RDKit          3D

 23 24  0  0  0  0  0  0  0  0999 V2000
    3.1039   -0.6939    0.5525 N   0  0  0  0  0  0  0  0  0  0  0  0
    2.8039   -1.7939    1.3525 C   0  0  0  0  0  0  0  0  0  0  0  0
    1.6039   -2.1939    1.5525 N   0  0  0  0  0  0  0  0  0  0  0  0
    1.9039    0.0061    0.1525 C   0  0  0  0  0  0  0  0  0  0  0  0
    2.0039    1.4061    0.4525 C   0  0  0  0  0  0  0  0  0  0  0  0
    1.0039    2.3061   -0.0475 C   0  0  0  0  0  0  0  0  0  0  0  0
    3.2039    1.8061    1.0525 C   0  0  0  0  0  0  0  0  0  0  0  0
    4.3039   -0.1939    0.3525 N   0  0  0  0  0  0  0  0  0  0  0  0
    3.8039   -2.2939    2.0525 C   0  0  0  0  0  0  0  0  0  0  0  0
    3.3039   -3.2939    2.8525 N   0  0  0  0  0  0  0  0  0  0  0  0
    5.2039   -1.9939    1.8525 C   0  0  0  0  0  0  0  0  0  0  0  0
    5.4039   -0.9939    0.9525 C   0  0  0  0  0  0  0  0  0  0  0  0
    3.5039    3.2061    1.3525 C   0  0  0  0  0  0  0  0  0  0  0  0
    2.2039   -3.8939    3.0525 N   0  0  0  0  0  0  0  0  0  0  0  0
    6.4039   -2.5939    2.4525 C   0  0  0  0  0  0  0  0  0  0  0  0
    1.8039   -2.8939    2.6525 C   0  0  0  0  0  0  0  0  0  0  0  0
    7.5039   -2.2939    1.6525 N   0  0  0  0  0  0  0  0  0  0  0  0
    6.2039   -3.7939    2.8525 O   0  0  0  0  0  0  0  0  0  0  0  0
    7.9039   -1.3939    0.7525 C   0  0  0  0  0  0  0  0  0  0  0  0
    9.1039   -1.6939   -0.0475 C   0  0  0  0  0  0  0  0  0  0  0  0
    3.1039    4.1061    0.3525 O   0  0  0  0  0  0  0  0  0  0  0  0
    7.9039   -0.0939    1.4525 C   0  0  0  0  0  0  0  0  0  0  0  0
    1.0039   -0.6939   -0.0475 O   0  0  0  0  0  0  0  0  0  0  0  0
  2  1  1  0
  3  2  1  0
  4  1  1  0
  5  4  1  0
  6  5  1  0
  7  5  2  3
  8  1  1  0
  9  2  1  0
 10  9  1  0
 11  9  2  0
 12  8  2  0
 12 11  1  0
 13  7  1  0
 15 11  1  0
 16  3  2  0
 16 10  1  0
 16 14  1  0
 17 15  1  0
 18 15  1  0
 19 17  1  0
 20 19  1  0
 21 13  1  0
 22 19  1  0
 23  4  2  0
M  END
>  <ID>  (1) 
conformer_0

$$$$
