
     RDKit          3D

 10 11  0  0  0  0  0  0  0  0999 V2000
    3.1039   -0.6939    0.5525 N   0  0  0  0  0  0  0  0  0  0  0  0
    2.5039   -1.7939    1.1525 C   0  0  0  0  0  0  0  0  0  0  0  0
    3.4039   -2.3939    2.0525 C   0  0  0  0  0  0  0  0  0  0  0  0
    4.5039   -0.8939    0.4525 C   0  0  0  0  0  0  0  0  0  0  0  0
    4.7039   -1.7939    1.5525 C   0  0  0  0  0  0  0  0  0  0  0  0
    2.2039    0.3061   -0.0475 C   0  0  0  0  0  0  0  0  0  0  0  0
    2.1039    1.6061    0.5525 C   0  0  0  0  0  0  0  0  0  0  0  0
    1.1039    2.5061   -0.0475 C   0  0  0  0  0  0  0  0  0  0  0  0
    0.7039    2.0061   -1.3475 O   0  0  0  0  0  0  0  0  0  0  0  0
    0.0039    1.4061   -0.4475 C   0  0  0  0  0  0  0  0  0  0  0  0
  2  1  1  0
  3  2  2  0
  4  1  1  0
  5  3  1  0
  5  4  2  0
  6  1  1  0
  7  6  2  3
  8  7  1  0
  9  8  1  0
 10  8  1  0
 10  9  1  0
M  END
>  <ID>  (1) 
conformer_0

$$$$
