
     RDKit          3D

  7  7  0  0  0  0  0  0  0  0999 V2000
    3.5112   -0.7394    0.5669 N   0  0  0  0  0  0  0  0  0  0  0  0
    2.7112   -1.6394    1.1669 C   0  0  0  0  0  0  0  0  0  0  0  0
    3.4112   -2.4394    2.0669 C   0  0  0  0  0  0  0  0  0  0  0  0
    4.7112   -2.1394    1.8669 C   0  0  0  0  0  0  0  0  0  0  0  0
    4.9112   -1.0394    0.8669 C   0  0  0  0  0  0  0  0  0  0  0  0
    3.3112    0.0606   -0.5331 C   0  0  0  0  0  0  0  0  0  0  0  0
    2.5112    0.9606   -1.0331 O   0  0  0  0  0  0  0  0  0  0  0  0
  2  1  1  0
  3  2  2  0
  4  3  1  0
  5  1  1  0
  5  4  2  0
  6  1  1  0
  7  6  1  0
M  END
>  <ID>  (1) 
conformer_0

$$$$
