
     RDKit          3D

 31 36  0  0  0  0  0  0  0  0999 V2000
    3.1039   -0.6939    0.5525 N   0  0  0  0  0  4  0  0  0  0  0  0
    2.8039   -1.7939    1.3525 C   0  0  0  0  0  3  0  0  0  0  0  0
    1.6039   -2.1939    1.4525 N   0  0  0  0  0  0  0  0  0  0  0  0
    1.9039   -0.0939   -0.0475 C   0  0  0  0  0  0  0  0  0  0  0  0
    2.0039    1.3061    0.0525 C   0  0  0  0  0  0  0  0  0  0  0  0
    4.1039    0.2061    0.7525 N   0  0  0  0  0  0  0  0  0  0  0  0
    2.6039    2.1061    0.8525 C   0  0  0  0  0  0  0  0  0  0  0  0
    3.8039   -2.3939    2.1525 C   0  0  0  0  0  0  0  0  0  0  0  0
    3.1039   -3.1939    3.0525 N   0  0  0  0  0  0  0  0  0  0  0  0
    3.7039    2.4061    1.5525 C   0  0  0  0  0  0  0  0  0  0  0  0
    2.1039   -2.5939    3.5525 N   0  0  0  0  0  0  0  0  0  0  0  0
    0.8039    1.9061   -0.5475 C   0  0  0  0  0  0  0  0  0  0  0  0
    0.7039    3.2061   -0.4475 N   0  0  0  0  0  0  0  0  0  0  0  0
    5.1039   -1.9939    1.8525 C   0  0  0  0  0  0  0  0  0  0  0  0
    6.3039   -2.1939    2.2525 N   0  0  0  0  0  0  0  0  0  0  0  0
    1.7039   -3.0939    2.5525 C   0  0  0  0  0  0  0  0  0  0  0  0
    7.5039   -2.1939    1.8525 C   0  0  0  0  0  0  0  0  0  0  0  0
    8.2039   -1.6939    0.6525 C   0  0  0  0  0  0  0  0  0  0  0  0
    8.5039   -2.2939    2.9525 C   0  0  0  0  0  0  0  0  0  0  0  0
    3.9039    3.6061    2.2525 O   0  0  0  0  0  0  0  0  0  0  0  0
    9.6039   -2.1939    0.7525 C   0  0  0  0  0  0  0  0  0  0  0  0
    9.9039   -2.5939    2.1525 C   0  0  0  0  0  0  0  0  0  0  0  0
    5.2039    4.0061    2.7525 P   0  0  0  0  0  4  0  0  0  0  0  0
    5.2039    4.4061    4.1525 O   0  0  0  0  0  1  0  0  0  0  0  0
    6.2039    3.1061    2.1525 O   0  0  0  0  0  0  0  0  0  0  0  0
   -0.1961    3.9061   -0.8475 O   0  0  0  0  0  0  0  0  0  0  0  0
   -1.1961    3.0061   -1.1475 C   0  0  0  0  0  0  0  0  0  0  0  0
    5.4039    5.3061    2.0525 O   0  0  0  0  0  0  0  0  0  0  0  0
    4.8039   -0.8939    0.8525 C   0  0  0  0  0  0  0  0  0  0  0  0
   -0.5961    1.7061   -0.8475 O   0  0  0  0  0  0  0  0  0  0  0  0
    3.6039    1.2061    1.4525 C   0  0  0  0  0  0  0  0  0  0  0  0
  2  1  1  0
  3  2  1  0
  4  1  1  0
  5  4  2  0
  7  5  1  0
  8  2  1  0
  9  8  1  0
 10  7  1  0
 12  5  1  0
 13 12  2  0
 14  8  2  0
 15 14  1  0
 16  3  2  0
 16  9  1  0
 16 11  1  0
 17 15  2  3
 18 17  1  0
 19 17  1  0
 20 10  1  0
 21 18  1  0
 22 19  1  0
 22 21  1  0
 23 20  1  0
 24 23  2  0
 25 23  1  0
 26 13  1  0
 27 26  1  0
 28 23  1  0
 29  1  1  0
 29  6  1  0
 29 14  1  0
 30 12  1  0
 30 27  1  0
 31  6  1  0
 31  7  2  0
 31 10  1  0
M  END
>  <ID>  (1) 
conformer_0

$$$$
