
     RDKit          3D

 30 34  0  0  0  0  0  0  0  0999 V2000
    3.1039   -0.6939    0.5525 N   0  0  0  0  0  0  0  0  0  0  0  0
    2.8039   -1.7939    1.3525 C   0  0  0  0  0  0  0  0  0  0  0  0
    1.6039   -2.1939    1.4525 N   0  0  0  0  0  0  0  0  0  0  0  0
    1.9039   -0.0939   -0.0475 C   0  0  0  0  0  0  0  0  0  0  0  0
    2.0039    1.3061    0.0525 C   0  0  0  0  0  0  0  0  0  0  0  0
    4.1039    0.2061    0.7525 N   0  0  0  0  0  0  0  0  0  0  0  0
    2.6039    2.1061    0.8525 C   0  0  0  0  0  0  0  0  0  0  0  0
    3.8039   -2.3939    2.1525 C   0  0  0  0  0  0  0  0  0  0  0  0
    3.1039   -3.1939    3.0525 N   0  0  0  0  0  0  0  0  0  0  0  0
    3.7039    2.4061    1.5525 C   0  0  0  0  0  0  0  0  0  0  0  0
    2.1039   -2.5939    3.5525 N   0  0  0  0  0  0  0  0  0  0  0  0
    0.8039    1.9061   -0.5475 C   0  0  0  0  0  0  0  0  0  0  0  0
    5.1039   -2.1939    1.9525 C   0  0  0  0  0  0  0  0  0  0  0  0
    6.3039   -1.7939    2.0525 N   0  0  0  0  0  0  0  0  0  0  0  0
    0.8039    3.2061   -0.5475 N   0  0  0  0  0  0  0  0  0  0  0  0
    1.7039   -2.9939    2.5525 C   0  0  0  0  0  0  0  0  0  0  0  0
    7.3039   -1.2939    1.1525 C   0  0  0  0  0  0  0  0  0  0  0  0
    8.6039   -1.9939    0.9525 C   0  0  0  0  0  0  0  0  0  0  0  0
    3.7039    3.5061    2.5525 O   0  0  0  0  0  0  0  0  0  0  0  0
    5.0039    3.7061    3.2525 P   0  0  0  0  0  4  0  0  0  0  0  0
    5.3039    4.7061    4.1525 O   0  0  0  0  0  1  0  0  0  0  0  0
    5.9039    3.1061    2.2525 O   0  0  0  0  0  0  0  0  0  0  0  0
   -0.1961    3.9061   -0.7475 O   0  0  0  0  0  0  0  0  0  0  0  0
   -1.1961    2.9061   -1.0475 C   0  0  0  0  0  0  0  0  0  0  0  0
    9.3039   -1.7939   -0.3475 C   0  0  0  0  0  0  0  0  0  0  0  0
    8.5039   -3.2939    1.5525 O   0  0  0  0  0  0  0  0  0  0  0  0
    4.9039    2.6061    4.2525 O   0  0  0  0  0  0  0  0  0  0  0  0
    5.2039   -0.8939    1.2525 C   0  0  0  0  0  0  0  0  0  0  0  0
   -0.4961    1.7061   -0.7475 O   0  0  0  0  0  0  0  0  0  0  0  0
    2.0039    3.4061    0.4525 C   0  0  0  0  0  0  0  0  0  0  0  0
  2  1  1  0
  3  2  1  0
  4  1  1  0
  5  4  1  0
  6  1  1  0
  7  5  1  0
  8  2  1  0
  9  8  1  0
 10  7  1  0
 12  5  2  0
 13  8  2  0
 14 13  1  0
 15 12  1  0
 16  3  2  0
 16  9  1  0
 16 11  1  0
 17 14  1  0
 18 17  1  0
 19 10  1  0
 20 19  1  0
 21 20  2  0
 22 20  1  0
 23 15  1  0
 24 23  1  0
 25 18  1  0
 26 18  1  0
 27 20  1  0
 28  6  2  0
 28 13  1  0
 28 14  1  0
 29 12  1  0
 29 24  1  0
 30  7  2  0
 30 15  1  0
M  END
>  <ID>  (1) 
conformer_0

$$$$
