
     RDKit          3D

 13 13  0  0  0  0  0  0  0  0999 V2000
    3.5259   -0.6791    1.1977 N   0  0  0  0  0  0  0  0  0  0  0  0
    2.6259   -1.6791    1.2977 C   0  0  0  0  0  0  0  0  0  0  0  0
    3.0259   -2.5791    2.0977 C   0  0  0  0  0  0  0  0  0  0  0  0
    4.8259   -1.0791    0.9977 C   0  0  0  0  0  0  0  0  0  0  0  0
    5.2259   -2.1791    1.7977 C   0  0  0  0  0  0  0  0  0  0  0  0
    4.2259   -2.6791    2.3977 N   0  0  0  0  0  0  0  0  0  0  0  0
    3.2259    0.7209    0.7977 C   0  0  0  0  0  0  0  0  0  0  0  0
    1.9259    0.8209    0.0977 C   0  0  0  0  0  0  0  0  0  0  0  0
    1.4259    2.2209    0.0977 C   0  0  0  0  0  0  0  0  0  0  0  0
    0.1259    2.5209   -0.5023 C   0  0  0  0  0  0  0  0  0  0  0  0
   -0.0741    3.9209   -0.8023 O   0  0  0  0  0  0  0  0  0  0  0  0
    2.4259    3.0209   -0.6023 O   0  0  0  0  0  0  0  0  0  0  0  0
    0.9259   -0.1791    0.1977 O   0  0  0  0  0  0  0  0  0  0  0  0
  2  1  1  0
  3  2  1  0
  4  1  1  0
  5  4  2  0
  6  3  2  0
  6  5  1  0
  7  1  1  0
  8  7  1  0
  9  8  1  0
 10  9  1  0
 11 10  1  0
 12  9  1  0
 13  8  1  0
M  END
>  <ID>  (1) 
conformer_0

$$$$
