
     RDKit          3D

 10 10  0  0  0  0  0  0  0  0999 V2000
    3.5112   -0.7394    0.5669 N   0  0  0  0  0  0  0  0  0  0  0  0
    2.7112   -1.6394    1.2669 C   0  0  0  0  0  0  0  0  0  0  0  0
    3.6112   -2.4394    2.0669 C   0  0  0  0  0  0  0  0  0  0  0  0
    4.8112   -0.9394    0.7669 C   0  0  0  0  0  0  0  0  0  0  0  0
    4.9112   -1.9394    1.7669 C   0  0  0  0  0  0  0  0  0  0  0  0
    2.9112    0.2606   -0.2331 N   0  0  0  0  0  0  0  0  0  0  0  0
    1.5112    0.6606    0.0669 C   0  0  0  0  0  0  0  0  0  0  0  0
    1.2112    1.8606   -0.6331 C   0  0  0  0  0  0  0  0  0  0  0  0
    0.3112    2.7606   -0.3331 C   0  0  0  0  0  0  0  0  0  0  0  0
    0.5112    4.1606   -0.3331 O   0  0  0  0  0  0  0  0  0  0  0  0
  2  1  1  0
  3  2  2  0
  4  1  1  0
  5  3  1  0
  5  4  2  0
  6  1  1  0
  7  6  1  0
  8  7  1  0
  9  8  1  0
 10  9  1  0
M  END
>  <ID>  (1) 
conformer_0

$$$$
