
     RDKit          3D

 29 35  0  0  0  0  0  0  0  0999 V2000
    3.1039   -0.6939    0.5525 N   0  0  0  0  0  0  0  0  0  0  0  0
    2.8039   -1.7939    1.3525 C   0  0  0  0  0  0  0  0  0  0  0  0
    1.6039   -2.1939    1.4525 N   0  0  0  0  0  0  0  0  0  0  0  0
    1.9039   -0.0939   -0.0475 C   0  0  0  0  0  0  0  0  0  0  0  0
    2.0039    1.3061    0.0525 C   0  0  0  0  0  0  0  0  0  0  0  0
    4.1039    0.2061    0.7525 N   0  0  0  0  0  0  0  0  0  0  0  0
    2.6039    2.1061    0.8525 C   0  0  0  0  0  0  0  0  0  0  0  0
    3.8039   -2.3939    2.1525 C   0  0  0  0  0  0  0  0  0  0  0  0
    3.6039    2.7061    1.5525 C   0  0  0  0  0  0  0  0  0  0  0  0
    3.2039   -3.4939    2.7525 N   0  0  0  0  0  0  0  0  0  0  0  0
    2.2039   -3.1939    3.4525 N   0  0  0  0  0  0  0  0  0  0  0  0
    1.0039    1.9061   -0.7475 C   0  0  0  0  0  0  0  0  0  0  0  0
    5.1039   -1.7939    1.9525 C   0  0  0  0  0  0  0  0  0  0  0  0
    5.1039   -0.4939    1.4525 C   0  0  0  0  0  0  0  0  0  0  0  0
    6.4039   -2.2939    2.1525 C   0  0  0  0  0  0  0  0  0  0  0  0
    7.2039   -1.5939    1.3525 N   0  0  0  0  0  0  0  0  0  0  0  0
    8.4039   -1.7939    0.8525 N   0  0  0  0  0  0  0  0  0  0  0  0
    1.0039    3.3061   -0.5475 O   0  0  0  0  0  0  0  0  0  0  0  0
    1.7039   -3.0939    2.4525 C   0  0  0  0  0  0  0  0  0  0  0  0
    9.0039   -2.1939   -0.2475 C   0  0  0  0  0  0  0  0  0  0  0  0
    3.8039    4.1061    1.5525 O   0  0  0  0  0  0  0  0  0  0  0  0
    7.2039   -0.9939    2.6525 C   0  0  0  0  0  0  0  0  0  0  0  0
    9.6039   -1.0939   -1.0475 C   0  0  0  0  0  0  0  0  0  0  0  0
   10.3039   -0.3939   -0.1475 C   0  0  0  0  0  0  0  0  0  0  0  0
    9.9039   -0.1939    1.0525 N   0  0  0  0  0  0  0  0  0  0  0  0
   10.8039   -1.1939    1.0525 C   0  0  0  0  0  0  0  0  0  0  0  0
   11.7039   -0.9939    1.9525 N   0  0  0  0  0  0  0  0  0  0  0  0
    6.0039    0.2061    2.3525 C   0  0  0  0  0  0  0  0  0  0  0  0
    3.7039    1.4061    1.4525 C   0  0  0  0  0  0  0  0  0  0  0  0
  2  1  1  0
  3  2  2  0
  4  1  1  0
  5  4  2  0
  6  1  1  0
  7  5  1  0
  8  2  1  0
  9  7  1  0
 10  8  2  0
 11 10  1  0
 12  5  1  0
 13  8  1  0
 14  6  1  0
 14 13  2  0
 15 13  1  0
 16 15  1  0
 17 16  1  0
 18 12  1  0
 19  3  1  0
 19 11  2  0
 20 17  1  0
 21  9  1  0
 22 15  1  0
 22 16  1  0
 23 20  1  0
 24 23  1  0
 25 24  1  0
 26 24  1  0
 26 25  1  0
 27 26  2  0
 28 14  1  0
 28 22  1  0
 29  6  1  0
 29  7  2  0
 29  9  1  0
M  END
>  <ID>  (1) 
conformer_0

$$$$
