
     RDKit          3D

 20 23  0  0  0  0  0  0  0  0999 V2000
    1.1862   -2.7694    2.2724 N   0  0  0  0  0  0  0  0  0  0  0  0
    2.2862   -2.1694    1.6724 C   0  0  0  0  0  0  0  0  0  0  0  0
    3.5862   -2.4694    1.9724 C   0  0  0  0  0  0  0  0  0  0  0  0
    4.5862   -1.7694    1.4724 C   0  0  0  0  0  0  0  0  0  0  0  0
    5.8862   -1.8694    1.7724 N   0  0  0  0  0  0  0  0  0  0  0  0
    1.8862   -1.2694    0.7724 N   0  0  0  0  0  0  0  0  0  0  0  0
    2.8862   -0.1694    0.5724 C   0  0  0  0  0  0  0  0  0  0  0  0
    4.1862   -0.5694    0.8724 N   0  0  0  0  0  0  0  0  0  0  0  0
    2.3862    1.1306    0.2724 C   0  0  0  0  0  0  0  0  0  0  0  0
    2.5862    2.3306    0.9724 C   0  0  0  0  0  0  0  0  0  0  0  0
    0.9862    0.8306   -0.1276 C   0  0  0  0  0  0  0  0  0  0  0  0
    0.3862    2.1306   -0.4276 C   0  0  0  0  0  0  0  0  0  0  0  0
    1.1862    3.0306   -0.7276 N   0  0  0  0  0  0  0  0  0  0  0  0
    6.9862   -1.1694    1.1724 C   0  0  0  0  0  0  0  0  0  0  0  0
    2.1862    3.5306    0.0724 C   0  0  0  0  0  0  0  0  0  0  0  0
    8.2862   -1.4694    1.7724 C   0  0  0  0  0  0  0  0  0  0  0  0
    8.0862   -2.0694    3.0724 C   0  0  0  0  0  0  0  0  0  0  0  0
    7.5862   -3.4694    2.8724 C   0  0  0  0  0  0  0  0  0  0  0  0
    6.1862   -3.1694    2.3724 C   0  0  0  0  0  0  0  0  0  0  0  0
    8.0862   -2.1694    0.6724 N   0  0  0  0  0  0  0  0  0  0  0  0
  2  1  1  0
  3  2  1  0
  4  3  2  0
  5  4  1  0
  6  2  1  0
  7  6  2  0
  8  4  1  0
  8  7  1  0
  9  7  1  0
 10  9  2  0
 11  9  1  0
 12 11  2  0
 13 12  1  0
 14  5  1  0
 15 10  1  0
 15 13  2  0
 16 14  1  0
 17 16  1  0
 18 17  1  0
 19  5  1  0
 19 18  1  0
 20 14  1  0
 20 16  1  0
M  END
>  <ID>  (1) 
conformer_0

$$$$
