
     RDKit          3D

 24 28  0  0  0  0  0  0  0  0999 V2000
    3.1039   -0.6939    0.5525 N   0  0  0  0  0  0  0  0  0  0  0  0
    2.8039   -1.7939    1.3525 C   0  0  0  0  0  0  0  0  0  0  0  0
    1.6039   -2.1939    1.4525 N   0  0  0  0  0  0  0  0  0  0  0  0
    1.9039   -0.0939   -0.0475 C   0  0  0  0  0  0  0  0  0  0  0  0
    2.0039    1.3061    0.0525 C   0  0  0  0  0  0  0  0  0  0  0  0
    4.1039    0.2061    0.7525 N   0  0  0  0  0  0  0  0  0  0  0  0
    2.6039    2.1061    0.8525 C   0  0  0  0  0  0  0  0  0  0  0  0
    3.8039   -2.3939    2.1525 C   0  0  0  0  0  0  0  0  0  0  0  0
    3.1039   -3.2939    2.9525 N   0  0  0  0  0  0  0  0  0  0  0  0
    3.6039    2.6061    1.5525 C   0  0  0  0  0  0  0  0  0  0  0  0
    2.1039   -2.6939    3.5525 N   0  0  0  0  0  0  0  0  0  0  0  0
    5.1039   -2.0939    1.8525 C   0  0  0  0  0  0  0  0  0  0  0  0
    6.3039   -2.1939    2.3525 N   0  0  0  0  0  0  0  0  0  0  0  0
    0.8039    1.9061   -0.5475 C   0  0  0  0  0  0  0  0  0  0  0  0
    0.7039    3.2061   -0.5475 N   0  0  0  0  0  0  0  0  0  0  0  0
    1.7039   -3.1939    2.4525 C   0  0  0  0  0  0  0  0  0  0  0  0
    7.2039   -1.0939    2.3525 C   0  0  0  0  0  0  0  0  0  0  0  0
    8.3039   -1.1939    3.3525 C   0  0  0  0  0  0  0  0  0  0  0  0
    6.3039    0.1061    2.3525 C   0  0  0  0  0  0  0  0  0  0  0  0
    2.6039    3.4061    0.6525 C   0  0  0  0  0  0  0  0  0  0  0  0
    5.1039   -0.4939    1.5525 C   0  0  0  0  0  0  0  0  0  0  0  0
    8.7039   -2.3939    3.7525 F   0  0  0  0  0  0  0  0  0  0  0  0
    7.8039   -0.7939    4.6525 F   0  0  0  0  0  0  0  0  0  0  0  0
    1.7039    3.9061   -0.1475 O   0  0  0  0  0  0  0  0  0  0  0  0
  2  1  1  0
  3  2  1  0
  4  1  1  0
  5  4  1  0
  6  1  1  0
  7  5  1  0
  8  2  1  0
  9  8  1  0
 10  7  1  0
 12  8  2  0
 13 12  1  0
 14  5  2  0
 15 14  1  0
 16  3  2  0
 16  9  1  0
 16 11  1  0
 17 13  1  0
 18 17  1  0
 19 17  1  0
 20  7  2  0
 20 10  1  0
 21  6  2  0
 21 12  1  0
 21 19  1  0
 22 18  1  0
 23 18  1  0
 24 15  1  0
 24 20  1  0
M  END
>  <ID>  (1) 
conformer_0

$$$$
