
     RDKit          3D

  8  8  0  0  0  0  0  0  0  0999 V2000
    3.1039   -0.6939    0.5525 N   0  0  0  0  0  0  0  0  0  0  0  0
    2.7039   -1.6939    1.3525 C   0  0  0  0  0  0  0  0  0  0  0  0
    3.7039   -2.2939    2.0525 C   0  0  0  0  0  0  0  0  0  0  0  0
    4.5039   -0.6939    0.4525 C   0  0  0  0  0  0  0  0  0  0  0  0
    4.9039   -1.7939    1.3525 C   0  0  0  0  0  0  0  0  0  0  0  0
    2.1039    0.2061    0.0525 C   0  0  0  0  0  0  0  0  0  0  0  0
    2.5039    1.0061   -0.9475 O   0  0  0  0  0  0  0  0  0  0  0  0
    1.0039   -0.3939   -0.4475 N   0  0  0  0  0  0  0  0  0  0  0  0
  2  1  1  0
  3  2  2  0
  4  1  1  0
  5  3  1  0
  5  4  2  0
  6  1  1  0
  7  6  1  0
  8  6  1  0
M  END
>  <ID>  (1) 
conformer_0

$$$$
