
     RDKit          3D

 14 14  0  0  0  0  0  0  0  0999 V2000
  -23.8390  -35.1611   44.2194 O   0  0  0  0  0  1  0  0  0  0  0  0
  -24.8390  -34.9611   43.2194 P   0  0  0  0  0  4  0  0  0  0  0  0
  -26.2390  -34.8611   43.0194 O   0  0  0  0  0  0  0  0  0  0  0  0
  -24.0390  -35.5611   42.1194 O   0  0  0  0  0  0  0  0  0  0  0  0
  -24.1390  -34.8611   40.8194 C   0  0  0  0  0  0  0  0  0  0  0  0
  -23.1390  -34.0611   40.1194 C   0  0  0  0  0  0  0  0  0  0  0  0
  -23.2390  -33.7611   38.7194 C   0  0  0  0  0  0  0  0  0  0  0  0
  -21.9390  -33.5611   38.1194 N   0  0  0  0  0  0  0  0  0  0  0  0
  -24.2390  -33.6611   37.8194 C   0  0  0  0  0  0  0  0  0  0  0  0
  -23.7390  -33.4611   36.5194 C   0  0  0  0  0  0  0  0  0  0  0  0
  -22.4390  -33.1611   36.8194 N   0  0  0  0  0  0  0  0  0  0  0  0
  -24.1390  -32.8611   35.3194 C   0  0  0  0  0  0  0  0  0  0  0  0
  -23.0390  -32.8611   34.4194 O   0  0  0  0  0  0  0  0  0  0  0  0
  -24.4390  -33.5611   42.9194 O   0  0  0  0  0  0  0  0  0  0  0  0
  2  1  2  0
  3  2  1  0
  4  2  1  0
  5  4  1  0
  6  5  2  3
  7  6  1  0
  8  7  2  0
  9  7  1  0
 10  9  1  0
 11  8  1  0
 11 10  2  0
 12 10  1  0
 13 12  1  0
 14  2  1  0
M  END
>  <ID>  (1) 
conformer_0

$$$$
