
     RDKit          3D

 13 13  0  0  0  0  0  0  0  0999 V2000
  -24.8335  -35.4180   42.5317 P   0  0  0  0  0  4  0  0  0  0  0  0
  -23.8335  -34.9180   43.5317 O   0  0  0  0  0  1  0  0  0  0  0  0
  -26.1335  -34.7180   42.7317 O   0  0  0  0  0  0  0  0  0  0  0  0
  -24.9335  -36.8180   42.8317 O   0  0  0  0  0  0  0  0  0  0  0  0
  -24.0335  -35.0180   41.3317 O   0  0  0  0  0  0  0  0  0  0  0  0
  -23.6335  -34.6180   40.1317 C   0  0  0  0  0  0  0  0  0  0  0  0
  -22.4335  -34.1180   39.5317 C   0  0  0  0  0  0  0  0  0  0  0  0
  -22.6335  -33.4180   38.3317 C   0  0  0  0  0  0  0  0  0  0  0  0
  -23.9335  -33.8180   37.7317 C   0  0  0  0  0  0  0  0  0  0  0  0
  -24.7335  -34.1180   40.0317 C   0  0  0  0  0  0  0  0  0  0  0  0
  -24.2335  -33.9180   36.4317 O   0  0  0  0  0  0  0  0  0  0  0  0
  -23.7335  -33.0180   35.5317 C   0  0  0  0  0  0  0  0  0  0  0  0
  -25.0335  -33.7180   38.6317 C   0  0  0  0  0  0  0  0  0  0  0  0
  2  1  2  0
  3  1  1  0
  4  1  1  0
  5  1  1  0
  6  5  1  0
  7  6  2  0
  8  7  1  0
  9  8  2  0
 10  6  1  0
 11  9  1  0
 12 11  1  0
 13  9  1  0
 13 10  2  0
M  END
>  <ID>  (1) 
conformer_0

$$$$
