
     RDKit          3D

 14 14  0  0  0  0  0  0  0  0999 V2000
  -24.7596  -34.8195   42.3453 P   0  0  0  0  0  4  0  0  0  0  0  0
  -26.1596  -34.3195   42.3453 O   0  0  0  0  0  1  0  0  0  0  0  0
  -23.8596  -35.0195   43.4453 O   0  0  0  0  0  0  0  0  0  0  0  0
  -24.1596  -35.2195   41.0453 O   0  0  0  0  0  0  0  0  0  0  0  0
  -23.3596  -34.5195   40.0453 C   0  0  0  0  0  0  0  0  0  0  0  0
  -23.8596  -33.8195   38.8453 C   0  0  0  0  0  0  0  0  0  0  0  0
  -22.8596  -33.1195   38.0453 C   0  0  0  0  0  0  0  0  0  0  0  0
  -22.9596  -33.4195   36.6453 C   0  0  0  0  0  0  0  0  0  0  0  0
  -24.3596  -33.4195   36.3453 C   0  0  0  0  0  0  0  0  0  0  0  0
  -25.0596  -33.6195   35.5453 O   0  0  0  0  0  0  0  0  0  0  0  0
  -25.2596  -33.9195   38.5453 C   0  0  0  0  0  0  0  0  0  0  0  0
  -26.1596  -33.7195   39.5453 O   0  0  0  0  0  0  0  0  0  0  0  0
  -25.4596  -33.7195   37.1453 C   0  0  0  0  0  0  0  0  0  0  0  0
  -24.7596  -36.1195   43.0453 O   0  0  0  0  0  0  0  0  0  0  0  0
  2  1  2  0
  3  1  1  0
  4  1  1  0
  5  4  1  0
  6  5  2  3
  7  6  1  0
  8  7  1  0
  9  8  1  0
 10  9  2  0
 11  6  1  0
 12 11  1  0
 13  9  1  0
 13 11  1  0
 14  1  1  0
M  END
>  <ID>  (1) 
conformer_0

$$$$
