
     RDKit          3D

  5  4  0  0  0  0  0  0  0  0999 V2000
  -23.7748  -35.1315   43.7914 O   0  0  0  0  0  1  0  0  0  0  0  0
  -24.7748  -35.0315   42.6914 P   0  0  0  0  0  4  0  0  0  0  0  0
  -26.1748  -34.5315   42.5914 O   0  0  0  0  0  0  0  0  0  0  0  0
  -24.1748  -35.3315   41.3914 O   0  0  0  0  0  0  0  0  0  0  0  0
  -24.8748  -36.4315   42.1914 O   0  0  0  0  0  0  0  0  0  0  0  0
  2  1  2  0
  3  2  1  0
  4  2  1  0
  5  2  1  0
M  END
>  <ID>  (1) 
conformer_0

$$$$
