
     RDKit          3D

  6  5  0  0  0  0  0  0  0  0999 V2000
  -24.8689  -35.1547   42.7485 P   0  0  0  0  0  5  0  0  0  0  0  0
  -23.7689  -35.0547   43.6485 O   0  0  0  0  0  0  0  0  0  0  0  0
  -26.0689  -34.3547   42.7485 O   0  0  0  0  0  0  0  0  0  0  0  0
  -24.7689  -36.3547   41.9485 O   0  0  0  0  0  0  0  0  0  0  0  0
  -23.7689  -34.2547   42.3485 O   0  0  0  0  0  0  0  0  0  0  0  0
  -25.4689  -36.8547   43.1485 C   0  0  0  0  0  0  0  0  0  0  0  0
  2  1  1  0
  3  1  1  0
  5  1  1  0
  6  1  1  0
  6  4  1  0
M  END
>  <ID>  (1) 
conformer_0

$$$$
