
     RDKit          3D

  9  9  0  0  0  0  0  0  0  0999 V2000
  -23.0864  -33.8258   37.2891 C   0  0  0  0  0  0  0  0  0  0  0  0
  -21.9864  -33.0258   37.3891 N   0  0  0  0  0  0  0  0  0  0  0  0
  -23.7864  -33.9258   38.4891 C   0  0  0  0  0  0  0  0  0  0  0  0
  -22.8864  -33.5258   39.5891 C   0  0  0  0  0  0  0  0  0  0  0  0
  -21.6864  -34.0258   39.3891 C   0  0  0  0  0  0  0  0  0  0  0  0
  -23.6864  -33.8258   36.0891 C   0  0  0  0  0  0  0  0  0  0  0  0
  -22.6864  -33.3258   35.0891 C   0  0  0  0  0  0  0  0  0  0  0  0
  -21.0864  -33.4258   38.3891 N   0  0  0  0  0  0  0  0  0  0  0  0
  -24.9864  -33.4258   35.7891 O   0  0  0  0  0  0  0  0  0  0  0  0
  2  1  2  0
  3  1  1  0
  4  3  2  0
  5  4  1  0
  6  1  1  0
  7  6  1  0
  8  2  1  0
  8  5  2  0
  9  6  1  0
M  END
>  <ID>  (1) 
conformer_0

$$$$
