
     RDKit          3D

 12 12  0  0  0  0  0  0  0  0999 V2000
  -24.7531  -34.9327   42.9539 P   0  0  0  0  0  4  0  0  0  0  0  0
  -23.7531  -35.2327   43.8539 O   0  0  0  0  0  0  0  0  0  0  0  0
  -26.1531  -34.5327   42.8539 O   0  0  0  0  0  1  0  0  0  0  0  0
  -24.3531  -35.0327   41.5539 O   0  0  0  0  0  0  0  0  0  0  0  0
  -24.8531  -34.2327   40.4539 C   0  0  0  0  0  0  0  0  0  0  0  0
  -23.7531  -34.0327   39.4539 C   0  0  0  0  0  0  0  0  0  0  0  0
  -22.4531  -33.9327   39.7539 C   0  0  0  0  0  0  0  0  0  0  0  0
  -24.2531  -33.8327   38.1539 C   0  0  0  0  0  0  0  0  0  0  0  0
  -21.5531  -33.6327   38.6539 N   0  0  0  0  0  0  0  0  0  0  0  0
  -23.2531  -33.5327   37.2539 C   0  0  0  0  0  0  0  0  0  0  0  0
  -22.1531  -33.0327   37.6539 C   0  0  0  0  0  0  0  0  0  0  0  0
  -24.5531  -36.3327   43.4539 O   0  0  0  0  0  0  0  0  0  0  0  0
  2  1  1  0
  3  1  2  0
  4  1  1  0
  5  4  1  0
  6  5  1  0
  7  6  2  0
  8  6  1  0
  9  7  1  0
 10  8  2  0
 11  9  2  0
 11 10  1  0
 12  1  1  0
M  END
>  <ID>  (1) 
conformer_0

$$$$
