
     RDKit          3D

 16 18  0  0  0  0  0  0  0  0999 V2000
  -24.6597  -34.8235   42.8477 P   0  0  0  0  0  4  0  0  0  0  0  0
  -23.7597  -35.1235   43.9477 O   0  0  0  0  0  1  0  0  0  0  0  0
  -26.0597  -35.2235   43.1477 O   0  0  0  0  0  0  0  0  0  0  0  0
  -24.2597  -35.4235   41.5477 O   0  0  0  0  0  0  0  0  0  0  0  0
  -23.7597  -34.8235   40.3477 C   0  0  0  0  0  0  0  0  0  0  0  0
  -22.9597  -33.7235   40.0477 C   0  0  0  0  0  0  0  0  0  0  0  0
  -22.1597  -33.7235   38.8477 C   0  0  0  0  0  0  0  0  0  0  0  0
  -22.1597  -33.0235   37.6477 N   0  0  0  0  0  0  0  0  0  0  0  0
  -22.8597  -33.4235   36.5477 C   0  0  0  0  0  0  0  0  0  0  0  0
  -22.7597  -33.4235   35.1477 C   0  0  0  0  0  0  0  0  0  0  0  0
  -24.1597  -33.7235   37.1477 C   0  0  0  0  0  0  0  0  0  0  0  0
  -24.5597  -33.7235   38.3477 C   0  0  0  0  0  0  0  0  0  0  0  0
  -24.0597  -33.3235   40.6477 C   0  0  0  0  0  0  0  0  0  0  0  0
  -24.4597  -33.5235   42.1477 O   0  0  0  0  0  0  0  0  0  0  0  0
  -20.8597  -34.0235   39.1477 N   0  0  0  0  0  0  0  0  0  0  0  0
  -24.1597  -34.8235   37.9477 O   0  0  0  0  0  0  0  0  0  0  0  0
  2  1  2  0
  3  1  1  0
  4  1  1  0
  5  4  1  0
  6  5  1  0
  7  6  1  0
  8  7  1  0
  9  8  1  0
 10  9  1  0
 11  9  1  0
 12 11  1  0
 13  5  1  0
 13  6  1  0
 14  1  1  0
 14 13  1  0
 15  7  2  0
 16 11  1  0
 16 12  1  0
M  END
>  <ID>  (1) 
conformer_0

$$$$
