
     RDKit          3D

 15 15  0  0  0  0  0  0  0  0999 V2000
  -24.6047  -35.0650   43.0730 P   0  0  0  0  0  4  0  0  0  0  0  0
  -23.7047  -35.3650   44.1730 O   0  0  0  0  0  1  0  0  0  0  0  0
  -26.0047  -35.1650   42.9730 O   0  0  0  0  0  0  0  0  0  0  0  0
  -24.0047  -34.6650   41.7730 O   0  0  0  0  0  0  0  0  0  0  0  0
  -24.7047  -34.0650   40.6730 C   0  0  0  0  0  0  0  0  0  0  0  0
  -24.1047  -34.2650   39.3730 C   0  0  0  0  0  0  0  0  0  0  0  0
  -22.7047  -33.8650   39.3730 C   0  0  0  0  0  0  0  0  0  0  0  0
  -22.1047  -33.4650   38.1730 C   0  0  0  0  0  0  0  0  0  0  0  0
  -23.2047  -33.3650   37.1730 C   0  0  0  0  0  0  0  0  0  0  0  0
  -22.8047  -33.5650   35.8730 C   0  0  0  0  0  0  0  0  0  0  0  0
  -24.6047  -33.6650   37.1730 O   0  0  0  0  0  0  0  0  0  0  0  0
  -23.8047  -32.8650   35.0730 C   0  0  0  0  0  0  0  0  0  0  0  0
  -24.1047  -32.6650   33.8730 O   0  0  0  0  0  0  0  0  0  0  0  0
  -25.1047  -33.2650   35.9730 C   0  0  0  0  0  0  0  0  0  0  0  0
  -24.5047  -36.4650   42.6730 O   0  0  0  0  0  0  0  0  0  0  0  0
  2  1  2  0
  3  1  1  0
  4  1  1  0
  5  4  1  0
  6  5  1  0
  7  6  1  0
  8  7  1  0
  9  8  1  0
 10  9  1  0
 11  9  1  0
 12 10  1  0
 13 12  2  0
 14 11  1  0
 14 12  1  0
 15  1  1  0
M  END
>  <ID>  (1) 
conformer_0

$$$$
