
     RDKit          3D

 14 14  0  0  0  0  0  0  0  0999 V2000
  -24.9531  -35.0694   42.4725 P   0  0  0  0  0  4  0  0  0  0  0  0
  -23.9531  -35.1694   43.5725 O   0  0  0  0  0  1  0  0  0  0  0  0
  -26.1531  -34.2694   42.7725 O   0  0  0  0  0  0  0  0  0  0  0  0
  -25.1531  -36.4694   41.9725 O   0  0  0  0  0  0  0  0  0  0  0  0
  -24.2531  -34.3694   41.3725 O   0  0  0  0  0  0  0  0  0  0  0  0
  -24.8531  -34.3694   40.0725 C   0  0  0  0  0  0  0  0  0  0  0  0
  -23.8531  -33.9694   39.0725 C   0  0  0  0  0  0  0  0  0  0  0  0
  -22.5531  -33.8694   39.5725 C   0  0  0  0  0  0  0  0  0  0  0  0
  -21.5531  -33.5694   38.5725 N   0  0  0  0  0  0  0  0  0  0  0  0
  -23.8531  -33.6694   37.6725 C   0  0  0  0  0  0  0  0  0  0  0  0
  -22.9531  -33.2694   36.7725 C   0  0  0  0  0  0  0  0  0  0  0  0
  -23.4531  -33.1694   35.4725 C   0  0  0  0  0  0  0  0  0  0  0  0
  -21.8531  -33.1694   37.3725 N   0  0  0  0  0  0  0  0  0  0  0  0
  -24.4531  -33.0694   34.8725 O   0  0  0  0  0  0  0  0  0  0  0  0
  2  1  2  0
  3  1  1  0
  4  1  1  0
  5  1  1  0
  6  5  1  0
  7  6  1  0
  8  7  2  0
  9  8  1  0
 10  7  1  0
 11 10  2  0
 12 11  1  0
 13  9  2  0
 13 11  1  0
 14 12  2  0
M  END
>  <ID>  (1) 
conformer_0

$$$$
