
     RDKit          3D

 15 16  0  0  0  0  0  0  0  0999 V2000
  -22.8515  -33.2718   37.5392 C   0  0  0  0  0  0  0  0  0  0  0  0
  -21.6515  -33.3718   38.0392 N   0  0  0  0  0  0  0  0  0  0  0  0
  -23.0515  -33.3718   36.1392 C   0  0  0  0  0  0  0  0  0  0  0  0
  -21.4515  -33.7718   39.3392 C   0  0  0  0  0  0  0  0  0  0  0  0
  -22.7515  -33.9718   39.9392 C   0  0  0  0  0  0  0  0  0  0  0  0
  -23.9515  -33.9718   39.5392 C   0  0  0  0  0  0  0  0  0  0  0  0
  -24.0515  -33.6718   38.1392 C   0  0  0  0  0  0  0  0  0  0  0  0
  -25.1515  -33.6718   40.3392 C   0  0  0  0  0  0  0  0  0  0  0  0
  -24.0515  -32.8718   35.3392 C   0  0  0  0  0  0  0  0  0  0  0  0
  -24.3515  -34.0718   35.9392 O   0  0  0  0  0  0  0  0  0  0  0  0
  -25.4515  -34.6718   41.3392 O   0  0  0  0  0  0  0  0  0  0  0  0
  -24.8515  -34.9718   42.6392 P   0  0  0  0  0  4  0  0  0  0  0  0
  -23.7515  -35.1718   43.6392 O   0  0  0  0  0  0  0  0  0  0  0  0
  -26.0515  -35.3718   43.4392 O   0  0  0  0  0  1  0  0  0  0  0  0
  -24.2515  -33.6718   43.0392 O   0  0  0  0  0  0  0  0  0  0  0  0
  2  1  2  0
  3  1  1  0
  4  2  1  0
  5  4  2  0
  6  5  1  0
  7  1  1  0
  7  6  2  0
  8  6  1  0
  9  3  1  0
 10  3  1  0
 10  9  1  0
 11  8  1  0
 12 11  1  0
 13 12  1  0
 14 12  2  0
 15 12  1  0
M  END
>  <ID>  (1) 
conformer_0

$$$$
