
     RDKit          3D

 16 17  0  0  0  0  0  0  0  0999 V2000
  -24.7661  -35.1678   42.8566 P   0  0  0  0  0  4  0  0  0  0  0  0
  -23.7661  -35.2677   43.9566 O   0  0  0  0  0  1  0  0  0  0  0  0
  -26.1661  -35.0678   42.9566 O   0  0  0  0  0  0  0  0  0  0  0  0
  -23.9662  -34.7677   41.6566 O   0  0  0  0  0  0  0  0  0  0  0  0
  -23.9662  -33.5677   40.8566 C   0  0  0  0  0  0  0  0  0  0  0  0
  -23.2661  -33.6677   39.5566 C   0  0  0  0  0  0  0  0  0  0  0  0
  -21.8661  -33.8677   39.4566 C   0  0  0  0  0  0  0  0  0  0  0  0
  -21.4662  -33.4677   38.1566 N   0  0  0  0  0  0  0  0  0  0  0  0
  -23.8661  -33.6677   38.2566 C   0  0  0  0  0  0  0  0  0  0  0  0
  -22.6662  -33.2677   37.3566 C   0  0  0  0  0  0  0  0  0  0  0  0
  -22.8662  -33.2677   35.9566 C   0  0  0  0  0  0  0  0  0  0  0  0
  -24.2662  -32.9677   35.6566 C   0  0  0  0  0  0  0  0  0  0  0  0
  -25.0662  -33.9677   37.7566 C   0  0  0  0  0  0  0  0  0  0  0  0
  -24.3662  -32.2677   34.3566 O   0  0  0  0  0  0  0  0  0  0  0  0
  -25.3662  -33.2677   36.4566 C   0  0  0  0  0  0  0  0  0  0  0  0
  -24.6661  -36.5678   42.4566 O   0  0  0  0  0  0  0  0  0  0  0  0
  2  1  2  0
  3  1  1  0
  4  1  1  0
  5  4  1  0
  6  5  1  0
  7  6  1  0
  8  7  1  0
  9  6  1  0
 10  8  1  0
 10  9  1  0
 11 10  1  0
 12 11  1  0
 13  9  1  0
 14 12  1  0
 15 12  2  0
 15 13  1  0
 16  1  1  0
M  END
>  <ID>  (1) 
conformer_0

$$$$
