
     RDKit          3D

  8  7  0  0  0  0  0  0  0  0999 V2000
  -24.8563  -35.1743   42.9728 P   0  0  0  0  0  0  0  0  0  0  0  0
  -23.7563  -35.1743   43.9728 O   0  0  0  0  0  1  0  0  0  0  0  0
  -26.1563  -34.7743   43.0728 O   0  0  0  0  0  1  0  0  0  0  0  0
  -24.6563  -36.1743   41.8728 O   0  0  0  0  0  0  0  0  0  0  0  0
  -24.4563  -35.0743   41.0728 C   0  0  0  0  0  0  0  0  0  0  0  0
  -25.0563  -33.7743   40.7729 C   0  0  0  0  0  0  0  0  0  0  0  0
  -26.2563  -33.9743   40.0728 O   0  0  0  0  0  0  0  0  0  0  0  0
  -24.6563  -32.7743   41.6729 C   0  0  0  0  0  0  0  0  0  0  0  0
  2  1  1  0
  3  1  1  0
  4  1  1  0
  5  4  1  0
  6  5  1  0
  7  6  1  0
  8  6  1  0
M  END
>  <ID>  (1) 
conformer_0

$$$$
