
     RDKit          3D

 11 11  0  0  0  0  0  0  0  0999 V2000
  -24.6047  -35.0650   43.0730 P   0  0  0  0  0  4  0  0  0  0  0  0
  -23.7047  -35.3650   44.1730 O   0  0  0  0  0  1  0  0  0  0  0  0
  -26.0047  -35.1650   42.9730 O   0  0  0  0  0  0  0  0  0  0  0  0
  -24.0047  -34.6650   41.7730 O   0  0  0  0  0  0  0  0  0  0  0  0
  -24.7047  -34.0650   40.6730 C   0  0  0  0  0  0  0  0  0  0  0  0
  -23.7047  -33.8650   39.5730 C   0  0  0  0  0  0  0  0  0  0  0  0
  -22.3047  -33.7650   39.8730 C   0  0  0  0  0  0  0  0  0  0  0  0
  -23.8047  -33.7650   38.1730 C   0  0  0  0  0  0  0  0  0  0  0  0
  -21.5047  -33.5650   38.6730 N   0  0  0  0  0  0  0  0  0  0  0  0
  -22.5047  -33.2650   37.6730 C   0  0  0  0  0  0  0  0  0  0  0  0
  -24.5047  -36.4650   42.5730 O   0  0  0  0  0  0  0  0  0  0  0  0
  2  1  2  0
  3  1  1  0
  4  1  1  0
  5  4  1  0
  6  5  1  0
  7  6  2  0
  8  6  1  0
  9  7  1  0
 10  8  1  0
 10  9  2  0
 11  1  1  0
M  END
>  <ID>  (1) 
conformer_0

$$$$
