
     RDKit          3D

 15 17  0  0  0  0  0  0  0  0999 V2000
  -22.8515  -33.2718   37.5392 C   0  0  0  0  0  0  0  0  0  0  0  0
  -21.6515  -33.3718   38.0392 N   0  0  0  0  0  0  0  0  0  0  0  0
  -23.0515  -33.3718   36.1392 C   0  0  0  0  0  0  0  0  0  0  0  0
  -21.4515  -33.7718   39.3392 C   0  0  0  0  0  0  0  0  0  0  0  0
  -22.7515  -33.9718   39.9392 C   0  0  0  0  0  0  0  0  0  0  0  0
  -23.9515  -33.9718   39.5392 C   0  0  0  0  0  0  0  0  0  0  0  0
  -24.0515  -33.6718   38.1392 C   0  0  0  0  0  0  0  0  0  0  0  0
  -25.1515  -33.6718   40.3392 C   0  0  0  0  0  0  0  0  0  0  0  0
  -24.3515  -33.3718   35.7392 C   0  0  0  0  0  0  0  0  0  0  0  0
  -24.9515  -33.5718   37.0392 N   0  0  0  0  0  0  0  0  0  0  0  0
  -25.5515  -34.4718   41.2392 O   0  0  0  0  0  0  0  0  0  0  0  0
  -26.3515  -33.1718   37.1392 C   0  0  0  0  0  0  0  0  0  0  0  0
  -26.3515  -33.3718   39.6392 N   0  0  0  0  0  0  0  0  0  0  0  0
  -26.9515  -33.3718   38.4392 C   0  0  0  0  0  0  0  0  0  0  0  0
  -28.2515  -32.6718   38.5392 C   0  0  0  0  0  0  0  0  0  0  0  0
  2  1  2  0
  3  1  1  0
  4  2  1  0
  5  4  2  0
  6  5  1  0
  7  1  1  0
  7  6  2  0
  8  6  1  0
  9  3  2  0
 10  7  1  0
 10  9  1  0
 11  8  1  0
 12 10  1  0
 13  8  1  0
 14 12  1  0
 14 13  1  0
 15 14  1  0
M  END
>  <ID>  (1) 
conformer_0

$$$$
