
     RDKit          3D

 16 16  0  0  0  0  0  0  0  0999 V2000
  -24.9531  -35.0694   42.4725 P   0  0  0  0  0  4  0  0  0  0  0  0
  -23.8531  -35.2694   43.4725 O   0  0  0  0  0  1  0  0  0  0  0  0
  -26.1531  -34.4694   42.5725 O   0  0  0  0  0  0  0  0  0  0  0  0
  -24.7531  -36.1694   41.4725 O   0  0  0  0  0  0  0  0  0  0  0  0
  -24.2531  -35.0694   40.6725 C   0  0  0  0  0  0  0  0  0  0  0  0
  -24.9531  -33.9694   40.0725 C   0  0  0  0  0  0  0  0  0  0  0  0
  -26.2531  -34.0694   39.6725 O   0  0  0  0  0  0  0  0  0  0  0  0
  -23.9531  -33.7694   38.9725 C   0  0  0  0  0  0  0  0  0  0  0  0
  -22.5531  -33.8694   39.3725 C   0  0  0  0  0  0  0  0  0  0  0  0
  -21.6531  -33.5694   38.2725 N   0  0  0  0  0  0  0  0  0  0  0  0
  -22.4531  -33.1694   37.0725 C   0  0  0  0  0  0  0  0  0  0  0  0
  -24.3531  -34.2694   37.6725 O   0  0  0  0  0  0  0  0  0  0  0  0
  -23.6531  -33.6694   36.5725 C   0  0  0  0  0  0  0  0  0  0  0  0
  -24.3531  -33.5694   35.4725 O   0  0  0  0  0  0  0  0  0  0  0  0
  -22.2531  -33.4694   40.7725 O   0  0  0  0  0  0  0  0  0  0  0  0
  -21.9531  -32.4694   35.9725 N   0  0  0  0  0  0  0  0  0  0  0  0
  2  1  2  0
  3  1  1  0
  5  1  1  0
  5  4  1  0
  6  5  1  0
  7  6  1  0
  8  6  1  0
  9  8  1  0
 10  9  1  0
 11 10  1  0
 12  8  1  0
 13 11  1  0
 13 12  1  0
 14 13  2  0
 15  9  2  0
 16 11  1  0
M  END
>  <ID>  (1) 
conformer_0

$$$$
