
     RDKit          3D

 17 18  0  0  0  0  0  0  0  0999 V2000
  -25.9196  -34.6595   42.2392 O   0  0  0  0  0  0  0  0  0  0  0  0
  -24.6196  -34.8595   42.8392 P   0  0  0  0  0  4  0  0  0  0  0  0
  -23.7196  -35.1595   43.9392 O   0  0  0  0  0  1  0  0  0  0  0  0
  -23.8196  -34.4595   41.6392 O   0  0  0  0  0  0  0  0  0  0  0  0
  -24.4196  -34.1595   40.3392 C   0  0  0  0  0  0  0  0  0  0  0  0
  -23.5196  -33.7595   39.3392 C   0  0  0  0  0  0  0  0  0  0  0  0
  -23.7196  -33.6595   37.9392 C   0  0  0  0  0  0  0  0  0  0  0  0
  -22.8196  -33.2595   37.0392 C   0  0  0  0  0  0  0  0  0  0  0  0
  -21.6196  -33.2595   37.7392 N   0  0  0  0  0  0  0  0  0  0  0  0
  -22.9196  -33.2595   35.6392 C   0  0  0  0  0  0  0  0  0  0  0  0
  -24.1196  -32.7595   35.1392 C   0  0  0  0  0  0  0  0  0  0  0  0
  -25.0196  -33.3595   35.9392 N   0  0  0  0  0  0  0  0  0  0  0  0
  -21.4196  -33.6595   38.9392 C   0  0  0  0  0  0  0  0  0  0  0  0
  -22.2196  -33.5595   39.9392 C   0  0  0  0  0  0  0  0  0  0  0  0
  -25.0196  -33.6595   37.1392 C   0  0  0  0  0  0  0  0  0  0  0  0
  -25.7196  -35.8595   42.8392 O   0  0  0  0  0  0  0  0  0  0  0  0
  -23.0196  -34.3595   35.9392 O   0  0  0  0  0  0  0  0  0  0  0  0
  2  1  1  0
  3  2  2  0
  4  2  1  0
  5  4  1  0
  6  5  2  3
  7  6  1  0
  8  7  2  0
  9  8  1  0
 10  8  1  0
 11 10  2  0
 12 11  1  0
 13  9  1  0
 14  6  1  0
 14 13  1  0
 15  7  1  0
 15 12  2  0
 16  2  1  0
 17 10  1  0
M  END
>  <ID>  (1) 
conformer_0

$$$$
