
     RDKit          3D

 10  9  0  0  0  0  0  0  0  0999 V2000
  -24.7596  -34.8195   42.3453 P   0  0  0  0  0  4  0  0  0  0  0  0
  -26.1596  -34.3195   42.3453 O   0  0  0  0  0  1  0  0  0  0  0  0
  -23.8596  -35.0195   43.4453 O   0  0  0  0  0  0  0  0  0  0  0  0
  -24.1596  -34.6195   41.0453 O   0  0  0  0  0  0  0  0  0  0  0  0
  -23.1596  -33.8195   40.4453 C   0  0  0  0  0  0  0  0  0  0  0  0
  -22.1596  -34.0195   39.4453 C   0  0  0  0  0  0  0  0  0  0  0  0
  -22.4596  -33.3195   38.2453 C   0  0  0  0  0  0  0  0  0  0  0  0
  -23.8596  -33.7195   37.9453 C   0  0  0  0  0  0  0  0  0  0  0  0
  -24.5596  -34.3195   38.6453 O   0  0  0  0  0  0  0  0  0  0  0  0
  -25.2596  -36.2195   42.1453 O   0  0  0  0  0  0  0  0  0  0  0  0
  2  1  2  0
  3  1  1  0
  4  1  1  0
  5  4  1  0
  6  5  1  0
  7  6  1  0
  8  7  1  0
  9  8  2  0
 10  1  1  0
M  END
>  <ID>  (1) 
conformer_0

$$$$
