
     RDKit          3D

 16 17  0  0  0  0  0  0  0  0999 V2000
  -22.8515  -33.2718   37.5392 C   0  0  0  0  0  0  0  0  0  0  0  0
  -21.6515  -33.3718   38.0392 N   0  0  0  0  0  0  0  0  0  0  0  0
  -23.0515  -33.3718   36.1392 C   0  0  0  0  0  0  0  0  0  0  0  0
  -21.4515  -33.7718   39.3392 C   0  0  0  0  0  0  0  0  0  0  0  0
  -22.7515  -33.9718   39.9392 C   0  0  0  0  0  0  0  0  0  0  0  0
  -23.9515  -33.9718   39.5392 C   0  0  0  0  0  0  0  0  0  0  0  0
  -23.9515  -33.7718   38.1392 C   0  0  0  0  0  0  0  0  0  0  0  0
  -25.1515  -33.8718   40.3392 C   0  0  0  0  0  0  0  0  0  0  0  0
  -24.3515  -33.1718   35.7392 C   0  0  0  0  0  0  0  0  0  0  0  0
  -25.2515  -34.4718   41.5392 O   0  0  0  0  0  0  0  0  0  0  0  0
  -24.7515  -34.8718   42.7392 P   0  0  0  0  0  4  0  0  0  0  0  0
  -23.7515  -35.1718   43.6392 O   0  0  0  0  0  1  0  0  0  0  0  0
  -26.0515  -35.0718   43.4392 O   0  0  0  0  0  0  0  0  0  0  0  0
  -24.8515  -32.4718   34.7392 O   0  0  0  0  0  0  0  0  0  0  0  0
  -24.0515  -34.2718   35.9392 O   0  0  0  0  0  0  0  0  0  0  0  0
  -24.5515  -36.2718   42.2392 O   0  0  0  0  0  0  0  0  0  0  0  0
  2  1  2  0
  3  1  1  0
  4  2  1  0
  5  4  2  0
  6  5  1  0
  7  1  1  0
  7  6  2  0
  8  6  1  0
  9  3  1  0
 10  8  1  0
 11 10  1  0
 12 11  2  0
 13 11  1  0
 14  9  2  0
 15  3  1  0
 15  9  1  0
 16 11  1  0
M  END
>  <ID>  (1) 
conformer_0

$$$$
