
     RDKit          3D

  7  6  0  0  0  0  0  0  0  0999 V2000
  -23.7748  -35.1315   43.7914 O   0  0  0  0  0  1  0  0  0  0  0  0
  -24.8748  -34.9315   42.9914 P   0  0  0  0  0  4  0  0  0  0  0  0
  -26.0748  -34.4315   42.3914 O   0  0  0  0  0  0  0  0  0  0  0  0
  -25.0748  -36.3315   42.4914 O   0  0  0  0  0  0  0  0  0  0  0  0
  -23.8748  -34.3315   42.1914 O   0  0  0  0  0  0  0  0  0  0  0  0
  -25.6748  -37.4315   43.1914 C   0  0  0  0  0  0  0  0  0  0  0  0
  -25.7748  -37.0315   44.5914 C   0  0  0  0  0  0  0  0  0  0  0  0
  2  1  2  0
  3  2  1  0
  4  2  1  0
  5  2  1  0
  6  4  1  0
  7  6  1  0
M  END
>  <ID>  (1) 
conformer_0

$$$$
