
     RDKit          3D

 16 17  0  0  0  0  0  0  0  0999 V2000
  -24.6639  -34.9277   42.9460 P   0  0  0  0  0  4  0  0  0  0  0  0
  -23.7639  -35.4277   43.9460 O   0  0  0  0  0  1  0  0  0  0  0  0
  -26.0639  -35.3277   42.6460 O   0  0  0  0  0  0  0  0  0  0  0  0
  -23.9639  -34.4277   41.7460 O   0  0  0  0  0  0  0  0  0  0  0  0
  -24.4639  -33.6277   40.6460 C   0  0  0  0  0  0  0  0  0  0  0  0
  -23.4639  -33.5277   39.5460 C   0  0  0  0  0  0  0  0  0  0  0  0
  -23.8639  -33.7277   38.1460 C   0  0  0  0  0  0  0  0  0  0  0  0
  -23.2639  -33.4277   37.0460 C   0  0  0  0  0  0  0  0  0  0  0  0
  -21.9639  -32.9277   37.3460 N   0  0  0  0  0  0  0  0  0  0  0  0
  -21.4639  -33.6277   38.3460 N   0  0  0  0  0  0  0  0  0  0  0  0
  -22.0639  -33.7277   39.5460 C   0  0  0  0  0  0  0  0  0  0  0  0
  -25.2639  -34.1277   37.9460 C   0  0  0  0  0  0  0  0  0  0  0  0
  -23.8639  -33.4277   35.8460 N   0  0  0  0  0  0  0  0  0  0  0  0
  -25.1639  -33.7277   35.8460 O   0  0  0  0  0  0  0  0  0  0  0  0
  -26.0639  -33.3277   36.9460 C   0  0  0  0  0  0  0  0  0  0  0  0
  -25.0639  -33.6277   43.5460 O   0  0  0  0  0  0  0  0  0  0  0  0
  2  1  2  0
  3  1  1  0
  4  1  1  0
  5  4  1  0
  6  5  1  0
  7  6  1  0
  8  7  1  0
  9  8  2  0
 10  9  1  0
 11  6  1  0
 11 10  1  0
 12  7  1  0
 13  8  1  0
 14 13  1  0
 15 12  1  0
 15 14  1  0
 16  1  1  0
M  END
>  <ID>  (1) 
conformer_0

$$$$
