
     RDKit          3D

 14 15  0  0  0  0  0  0  0  0999 V2000
  -24.6639  -34.9277   42.9460 P   0  0  0  0  0  4  0  0  0  0  0  0
  -23.7639  -35.4277   43.9460 O   0  0  0  0  0  1  0  0  0  0  0  0
  -26.0639  -35.3277   42.6460 O   0  0  0  0  0  0  0  0  0  0  0  0
  -23.9639  -34.4277   41.7460 O   0  0  0  0  0  0  0  0  0  0  0  0
  -24.4639  -33.6277   40.6460 C   0  0  0  0  0  0  0  0  0  0  0  0
  -23.4639  -33.5277   39.5460 C   0  0  0  0  0  0  0  0  0  0  0  0
  -23.7639  -33.7277   38.1460 C   0  0  0  0  0  0  0  0  0  0  0  0
  -22.7639  -33.2277   37.2460 C   0  0  0  0  0  0  0  0  0  0  0  0
  -21.5639  -33.4277   38.0460 N   0  0  0  0  0  0  0  0  0  0  0  0
  -22.8639  -33.2277   35.8460 C   0  0  0  0  0  0  0  0  0  0  0  0
  -24.1639  -33.8277   35.8460 N   0  0  0  0  0  0  0  0  0  0  0  0
  -21.8639  -33.7277   39.3460 C   0  0  0  0  0  0  0  0  0  0  0  0
  -24.7639  -33.9277   37.0460 C   0  0  0  0  0  0  0  0  0  0  0  0
  -24.8639  -33.6277   43.6460 O   0  0  0  0  0  0  0  0  0  0  0  0
  2  1  2  0
  3  1  1  0
  4  1  1  0
  5  4  1  0
  6  5  1  0
  7  6  2  0
  8  7  1  0
  9  8  1  0
 10  8  2  0
 11 10  1  0
 12  6  1  0
 12  9  2  0
 13  7  1  0
 13 11  2  0
 14  1  1  0
M  END
>  <ID>  (1) 
conformer_0

$$$$
