
     RDKit          3D

 14 14  0  0  0  0  0  0  0  0999 V2000
  -24.7661  -35.1678   42.8566 P   0  0  0  0  0  4  0  0  0  0  0  0
  -23.7661  -35.2677   43.9566 O   0  0  0  0  0  1  0  0  0  0  0  0
  -26.1661  -35.0678   42.9566 O   0  0  0  0  0  0  0  0  0  0  0  0
  -23.9662  -34.7677   41.6566 O   0  0  0  0  0  0  0  0  0  0  0  0
  -23.9662  -33.5677   40.8566 C   0  0  0  0  0  0  0  0  0  0  0  0
  -23.4662  -33.7677   39.4566 C   0  0  0  0  0  0  0  0  0  0  0  0
  -22.0662  -33.8677   39.2566 C   0  0  0  0  0  0  0  0  0  0  0  0
  -21.7662  -33.3677   38.0566 N   0  0  0  0  0  0  0  0  0  0  0  0
  -22.6662  -33.3677   36.9566 C   0  0  0  0  0  0  0  0  0  0  0  0
  -23.9662  -33.7677   37.1566 C   0  0  0  0  0  0  0  0  0  0  0  0
  -24.7661  -33.6678   35.9566 O   0  0  0  0  0  0  0  0  0  0  0  0
  -24.3661  -33.8677   38.4566 C   0  0  0  0  0  0  0  0  0  0  0  0
  -22.4662  -32.9677   35.5566 C   0  0  0  0  0  0  0  0  0  0  0  0
  -24.9662  -36.5678   42.3566 O   0  0  0  0  0  0  0  0  0  0  0  0
  2  1  2  0
  3  1  1  0
  4  1  1  0
  5  4  1  0
  6  5  1  0
  7  6  1  0
  8  7  1  0
  9  8  2  0
 10  9  1  0
 11 10  1  0
 12  6  1  0
 12 10  2  0
 13  9  1  0
 14  1  1  0
M  END
>  <ID>  (1) 
conformer_0

$$$$
