
     RDKit          3D

 16 18  0  0  0  0  0  0  0  0999 V2000
  -24.6597  -34.8235   42.8477 P   0  0  0  0  0  4  0  0  0  0  0  0
  -23.7597  -35.1235   43.9477 O   0  0  0  0  0  1  0  0  0  0  0  0
  -26.0597  -35.2235   43.1477 O   0  0  0  0  0  0  0  0  0  0  0  0
  -24.2597  -35.4235   41.5477 O   0  0  0  0  0  0  0  0  0  0  0  0
  -23.7597  -34.8235   40.3477 C   0  0  0  0  0  0  0  0  0  0  0  0
  -22.9597  -33.7235   40.0477 C   0  0  0  0  0  0  0  0  0  0  0  0
  -21.7597  -33.9235   39.2477 C   0  0  0  0  0  0  0  0  0  0  0  0
  -21.4597  -33.5235   38.0477 N   0  0  0  0  0  0  0  0  0  0  0  0
  -22.5597  -33.0235   37.2477 C   0  0  0  0  0  0  0  0  0  0  0  0
  -23.7597  -33.4235   37.7477 C   0  0  0  0  0  0  0  0  0  0  0  0
  -22.3597  -33.0235   35.8477 N   0  0  0  0  0  0  0  0  0  0  0  0
  -24.3597  -34.2235   36.6477 N   0  0  0  0  0  0  0  0  0  0  0  0
  -23.6597  -33.4235   35.5477 C   0  0  0  0  0  0  0  0  0  0  0  0
  -24.2597  -33.4235   42.5477 O   0  0  0  0  0  0  0  0  0  0  0  0
  -23.9597  -34.0235   39.0477 C   0  0  0  0  0  0  0  0  0  0  0  0
  -25.1597  -34.1235   39.4477 N   0  0  0  0  0  0  0  0  0  0  0  0
  2  1  2  0
  3  1  1  0
  4  1  1  0
  5  4  1  0
  6  5  1  0
  7  6  1  0
  8  7  1  0
  9  8  2  0
 10  9  1  0
 11  9  1  0
 12 10  1  0
 13 11  1  0
 13 12  1  0
 14  1  1  0
 15  5  1  0
 15  6  1  0
 15 10  1  0
 16 15  1  0
M  END
>  <ID>  (1) 
conformer_0

$$$$
