
     RDKit          3D

 13 14  0  0  0  0  0  0  0  0999 V2000
  -22.2645  -34.2347   39.4004 C   0  0  0  0  0  0  0  0  0  0  0  0
  -21.7645  -33.5347   38.2004 N   0  0  0  0  0  0  0  0  0  0  0  0
  -23.4645  -33.7347   39.8004 C   0  0  0  0  0  0  0  0  0  0  0  0
  -24.2645  -33.4347   38.7004 C   0  0  0  0  0  0  0  0  0  0  0  0
  -22.6645  -33.3347   37.3004 C   0  0  0  0  0  0  0  0  0  0  0  0
  -23.9645  -33.7347   37.4004 C   0  0  0  0  0  0  0  0  0  0  0  0
  -23.9645  -33.8347   41.1004 C   0  0  0  0  0  0  0  0  0  0  0  0
  -23.7645  -34.2347   42.2004 O   0  0  0  0  0  0  0  0  0  0  0  0
  -25.2645  -33.2347   40.9004 N   0  0  0  0  0  0  0  0  0  0  0  0
  -26.2645  -33.2347   40.0004 C   0  0  0  0  0  0  0  0  0  0  0  0
  -27.5645  -32.6347   40.4004 C   0  0  0  0  0  0  0  0  0  0  0  0
  -25.8645  -33.5347   38.8004 N   0  0  0  0  0  0  0  0  0  0  0  0
  -22.1645  -33.4347   35.9004 N   0  0  0  0  0  0  0  0  0  0  0  0
  2  1  2  0
  3  1  1  0
  4  3  2  0
  5  2  1  0
  6  4  1  0
  6  5  2  0
  7  3  1  0
  8  7  2  0
  9  7  1  0
 10  9  2  0
 11 10  1  0
 12  4  1  0
 12 10  1  0
 13  5  1  0
M  END
>  <ID>  (1) 
conformer_0

$$$$
