
     RDKit          3D

 13 13  0  0  0  0  0  0  0  0999 V2000
  -24.6597  -34.8235   42.8477 P   0  0  0  0  0  4  0  0  0  0  0  0
  -23.7597  -35.1235   43.9477 O   0  0  0  0  0  1  0  0  0  0  0  0
  -26.0597  -35.3235   43.0477 O   0  0  0  0  0  0  0  0  0  0  0  0
  -23.9597  -34.7235   41.5477 O   0  0  0  0  0  0  0  0  0  0  0  0
  -23.4597  -33.8235   40.5477 C   0  0  0  0  0  0  0  0  0  0  0  0
  -22.4597  -34.1235   39.5477 C   0  0  0  0  0  0  0  0  0  0  0  0
  -22.9597  -33.6235   38.2477 C   0  0  0  0  0  0  0  0  0  0  0  0
  -22.1597  -33.1235   37.2477 N   0  0  0  0  0  0  0  0  0  0  0  0
  -24.3597  -34.0235   37.9477 C   0  0  0  0  0  0  0  0  0  0  0  0
  -22.8597  -33.4235   36.0477 C   0  0  0  0  0  0  0  0  0  0  0  0
  -22.3597  -33.3235   34.7477 C   0  0  0  0  0  0  0  0  0  0  0  0
  -24.2597  -33.6235   36.3477 C   0  0  0  0  0  0  0  0  0  0  0  0
  -24.9597  -33.4235   43.2477 O   0  0  0  0  0  0  0  0  0  0  0  0
  2  1  2  0
  3  1  1  0
  4  1  1  0
  5  4  1  0
  6  5  1  0
  7  6  1  0
  8  7  1  0
  9  7  1  0
 10  8  1  0
 11 10  1  0
 12  9  1  0
 12 10  1  0
 13  1  1  0
M  END
>  <ID>  (1) 
conformer_0

$$$$
