
     RDKit          3D

 10 10  0  0  0  0  0  0  0  0999 V2000
  -24.7616  -34.8464   42.6469 P   0  0  0  0  0  4  0  0  0  0  0  0
  -23.7616  -35.0464   43.6469 O   0  0  0  0  0  1  0  0  0  0  0  0
  -26.1616  -34.3464   42.7469 O   0  0  0  0  0  0  0  0  0  0  0  0
  -24.6616  -35.8464   41.5469 O   0  0  0  0  0  0  0  0  0  0  0  0
  -24.4616  -35.1464   40.2469 C   0  0  0  0  0  0  0  0  0  0  0  0
  -23.7616  -33.9464   40.2469 C   0  0  0  0  0  0  0  0  0  0  0  0
  -22.3616  -33.8464   39.8469 C   0  0  0  0  0  0  0  0  0  0  0  0
  -22.0616  -33.5464   38.4469 C   0  0  0  0  0  0  0  0  0  0  0  0
  -22.0616  -32.7464   37.5469 N   0  0  0  0  0  0  0  0  0  0  0  0
  -23.9616  -33.6464   41.6469 O   0  0  0  0  0  0  0  0  0  0  0  0
  2  1  2  0
  3  1  1  0
  4  1  1  0
  5  4  1  0
  6  5  1  0
  7  6  1  0
  8  7  1  0
  9  8  2  0
 10  1  1  0
 10  6  1  0
M  END
>  <ID>  (1) 
conformer_0

$$$$
