
     RDKit          3D

  9  8  0  0  0  0  0  0  0  0999 V2000
  -24.7337  -34.7347   42.5987 P   0  0  0  0  0  4  0  0  0  0  0  0
  -23.8337  -35.2347   43.5987 O   0  0  0  0  0  1  0  0  0  0  0  0
  -26.1337  -34.8347   42.7987 O   0  0  0  0  0  0  0  0  0  0  0  0
  -24.0337  -34.7347   41.2987 O   0  0  0  0  0  0  0  0  0  0  0  0
  -23.7337  -33.6347   40.3987 C   0  0  0  0  0  0  0  0  0  0  0  0
  -22.6337  -34.0347   39.4987 C   0  0  0  0  0  0  0  0  0  0  0  0
  -22.2337  -33.5347   38.1987 C   0  0  0  0  0  0  0  0  0  0  0  0
  -22.4337  -33.0347   37.0987 N   0  0  0  0  0  0  0  0  0  0  0  0
  -24.4337  -33.3347   42.7987 O   0  0  0  0  0  0  0  0  0  0  0  0
  2  1  2  0
  3  1  1  0
  4  1  1  0
  5  4  1  0
  6  5  1  0
  7  6  1  0
  8  7  2  0
  9  1  1  0
M  END
>  <ID>  (1) 
conformer_0

$$$$
