
     RDKit          3D

 16 17  0  0  0  0  0  0  0  0999 V2000
  -24.7661  -35.1678   42.8566 P   0  0  0  0  0  4  0  0  0  0  0  0
  -23.7661  -35.2677   43.9566 O   0  0  0  0  0  1  0  0  0  0  0  0
  -26.1661  -35.0678   42.9566 O   0  0  0  0  0  0  0  0  0  0  0  0
  -23.9662  -34.7677   41.6566 O   0  0  0  0  0  0  0  0  0  0  0  0
  -23.9662  -33.5677   40.8566 C   0  0  0  0  0  0  0  0  0  0  0  0
  -23.2661  -33.6677   39.5566 C   0  0  0  0  0  0  0  0  0  0  0  0
  -21.8661  -33.8677   39.4566 C   0  0  0  0  0  0  0  0  0  0  0  0
  -21.2661  -33.7677   38.3566 N   0  0  0  0  0  0  0  0  0  0  0  0
  -23.8661  -33.6677   38.2566 C   0  0  0  0  0  0  0  0  0  0  0  0
  -23.2661  -33.1677   37.1566 C   0  0  0  0  0  0  0  0  0  0  0  0
  -22.2661  -33.1677   36.3566 N   0  0  0  0  0  0  0  0  0  0  0  0
  -22.6661  -33.4677   35.0566 C   0  0  0  0  0  0  0  0  0  0  0  0
  -23.9661  -32.8677   34.8566 C   0  0  0  0  0  0  0  0  0  0  0  0
  -24.9661  -33.5677   35.6566 O   0  0  0  0  0  0  0  0  0  0  0  0
  -24.8661  -36.5678   42.3566 O   0  0  0  0  0  0  0  0  0  0  0  0
  -21.8661  -33.0677   37.4566 C   0  0  0  0  0  0  0  0  0  0  0  0
  2  1  2  0
  3  1  1  0
  4  1  1  0
  5  4  1  0
  6  5  1  0
  7  6  2  0
  8  7  1  0
  9  6  1  0
 10  9  1  0
 11 10  1  0
 12 11  1  0
 13 12  1  0
 14 13  1  0
 15  1  1  0
 16  8  1  0
 16 10  1  0
 16 11  1  0
M  END
>  <ID>  (1) 
conformer_0

$$$$
