
     RDKit          3D

 14 15  0  0  0  0  0  0  0  0999 V2000
  -24.7337  -34.7347   42.5987 P   0  0  0  0  0  4  0  0  0  0  0  0
  -23.8337  -35.2347   43.5987 O   0  0  0  0  0  1  0  0  0  0  0  0
  -26.1337  -34.8347   42.7987 O   0  0  0  0  0  0  0  0  0  0  0  0
  -23.9337  -34.1347   41.4987 O   0  0  0  0  0  0  0  0  0  0  0  0
  -23.3337  -34.5347   40.1987 C   0  0  0  0  0  0  0  0  0  0  0  0
  -22.3337  -33.7347   39.4987 C   0  0  0  0  0  0  0  0  0  0  0  0
  -21.4337  -33.5347   38.4987 N   0  0  0  0  0  0  0  0  0  0  0  0
  -22.0337  -33.3347   37.2987 N   0  0  0  0  0  0  0  0  0  0  0  0
  -23.3337  -33.4347   36.9987 C   0  0  0  0  0  0  0  0  0  0  0  0
  -23.7337  -33.5347   39.1987 C   0  0  0  0  0  0  0  0  0  0  0  0
  -24.2337  -33.8347   37.9987 C   0  0  0  0  0  0  0  0  0  0  0  0
  -24.0337  -33.2347   35.6987 C   0  0  0  0  0  0  0  0  0  0  0  0
  -25.2337  -35.8347   41.7987 O   0  0  0  0  0  0  0  0  0  0  0  0
  -25.3337  -33.3347   35.9987 O   0  0  0  0  0  0  0  0  0  0  0  0
  2  1  2  0
  3  1  1  0
  4  1  1  0
  5  4  1  0
  6  5  1  0
  7  6  1  0
  8  7  1  0
  9  8  2  0
 10  5  1  0
 10  6  1  0
 11  9  1  0
 11 10  1  0
 12  9  1  0
 13  1  1  0
 14 12  1  0
M  END
>  <ID>  (1) 
conformer_0

$$$$
