
     RDKit          3D

  5  4  0  0  0  0  0  0  0  0999 V2000
  -26.0688  -34.6340   42.3782 O   0  0  0  0  0  1  0  0  0  0  0  0
  -24.8688  -35.0340   43.1782 P   0  0  0  0  0  4  0  0  0  0  0  0
  -23.7688  -35.1340   44.0782 O   0  0  0  0  0  0  0  0  0  0  0  0
  -24.7688  -36.3340   42.4782 O   0  0  0  0  0  0  0  0  0  0  0  0
  -25.4688  -36.7340   43.5782 C   0  0  0  0  0  0  0  0  0  0  0  0
  2  1  2  0
  3  2  1  0
  5  2  1  0
  5  4  1  0
M  END
>  <ID>  (1) 
conformer_0

$$$$
