
     RDKit          3D

 11 10  0  0  0  0  0  0  0  0999 V2000
  -24.9215  -35.0280   42.7295 P   0  0  0  0  0  4  0  0  0  0  0  0
  -23.8215  -34.9280   43.7295 O   0  0  0  0  0  1  0  0  0  0  0  0
  -26.2215  -34.4280   42.8295 O   0  0  0  0  0  0  0  0  0  0  0  0
  -24.9215  -36.3280   42.0295 O   0  0  0  0  0  0  0  0  0  0  0  0
  -24.3215  -34.1280   41.7295 O   0  0  0  0  0  0  0  0  0  0  0  0
  -24.8215  -34.2280   40.3295 C   0  0  0  0  0  0  0  0  0  0  0  0
  -23.8215  -34.1280   39.2295 C   0  0  0  0  0  0  0  0  0  0  0  0
  -22.5215  -34.1280   39.7295 C   0  0  0  0  0  0  0  0  0  0  0  0
  -21.3215  -33.9280   39.2295 C   0  0  0  0  0  0  0  0  0  0  0  0
  -25.4215  -37.3280   43.0295 C   0  0  0  0  0  0  0  0  0  0  0  0
  -25.3215  -37.0280   44.4295 C   0  0  0  0  0  0  0  0  0  0  0  0
  2  1  2  0
  3  1  1  0
  4  1  1  0
  5  1  1  0
  6  5  1  0
  7  6  1  0
  8  7  1  0
  9  8  2  0
 10  4  1  0
 11 10  1  0
M  END
>  <ID>  (1) 
conformer_0

$$$$
