
     RDKit          3D

 12 12  0  0  0  0  0  0  0  0999 V2000
  -24.6047  -35.0650   43.0730 P   0  0  0  0  0  4  0  0  0  0  0  0
  -23.7047  -35.3650   44.1730 O   0  0  0  0  0  1  0  0  0  0  0  0
  -26.0047  -35.1650   42.9730 O   0  0  0  0  0  0  0  0  0  0  0  0
  -24.0047  -34.6650   41.7730 O   0  0  0  0  0  0  0  0  0  0  0  0
  -24.7047  -34.0650   40.6730 C   0  0  0  0  0  0  0  0  0  0  0  0
  -24.1047  -34.2650   39.3730 C   0  0  0  0  0  0  0  0  0  0  0  0
  -22.7047  -33.8650   39.3730 C   0  0  0  0  0  0  0  0  0  0  0  0
  -22.5047  -33.1650   38.0730 C   0  0  0  0  0  0  0  0  0  0  0  0
  -23.6047  -33.4650   37.1730 C   0  0  0  0  0  0  0  0  0  0  0  0
  -22.3047  -32.9650   36.9730 N   0  0  0  0  0  0  0  0  0  0  0  0
  -24.2047  -34.3650   36.5730 O   0  0  0  0  0  0  0  0  0  0  0  0
  -24.4047  -36.4650   42.5730 O   0  0  0  0  0  0  0  0  0  0  0  0
  2  1  2  0
  3  1  1  0
  4  1  1  0
  5  4  1  0
  6  5  1  0
  7  6  1  0
  8  7  1  0
  9  8  1  0
 10  8  1  0
 10  9  1  0
 11  9  1  0
 12  1  1  0
M  END
>  <ID>  (1) 
conformer_0

$$$$
