
     RDKit          3D

 16 17  0  0  0  0  0  0  0  0999 V2000
  -24.6597  -34.8235   42.8477 P   0  0  0  0  0  4  0  0  0  0  0  0
  -23.7597  -35.1235   43.9477 O   0  0  0  0  0  1  0  0  0  0  0  0
  -26.0597  -35.2235   43.1477 O   0  0  0  0  0  0  0  0  0  0  0  0
  -24.2597  -35.4235   41.5477 O   0  0  0  0  0  0  0  0  0  0  0  0
  -23.7597  -34.8235   40.3477 C   0  0  0  0  0  0  0  0  0  0  0  0
  -22.9597  -33.7235   40.0477 C   0  0  0  0  0  0  0  0  0  0  0  0
  -21.7597  -33.9235   39.2477 C   0  0  0  0  0  0  0  0  0  0  0  0
  -21.4597  -33.5235   38.0477 N   0  0  0  0  0  0  0  0  0  0  0  0
  -22.5597  -33.0235   37.2477 C   0  0  0  0  0  0  0  0  0  0  0  0
  -23.8597  -33.6235   37.5477 C   0  0  0  0  0  0  0  0  0  0  0  0
  -22.4597  -33.0235   35.8477 N   0  0  0  0  0  0  0  0  0  0  0  0
  -23.7597  -32.6235   35.3477 C   0  0  0  0  0  0  0  0  0  0  0  0
  -24.4597  -34.3235   36.6477 N   0  0  0  0  0  0  0  0  0  0  0  0
  -24.2597  -33.4235   42.6477 O   0  0  0  0  0  0  0  0  0  0  0  0
  -23.9597  -32.7235   34.0477 O   0  0  0  0  0  0  0  0  0  0  0  0
  -24.5597  -33.1235   36.2477 C   0  0  0  0  0  0  0  0  0  0  0  0
  2  1  2  0
  3  1  1  0
  4  1  1  0
  5  4  1  0
  6  5  1  0
  7  6  1  0
  8  7  2  3
  9  8  1  0
 10  9  1  0
 11  9  1  0
 12 11  1  0
 13 10  1  0
 14  1  1  0
 15 12  1  0
 16 10  1  0
 16 12  1  0
 16 13  1  0
M  END
>  <ID>  (1) 
conformer_0

$$$$
