
     RDKit          3D

 14 14  0  0  0  0  0  0  0  0999 V2000
  -24.8667  -35.0831   42.7798 P   0  0  0  0  0  4  0  0  0  0  0  0
  -23.7667  -35.2831   43.7798 O   0  0  0  0  0  1  0  0  0  0  0  0
  -26.0667  -35.6831   43.3798 O   0  0  0  0  0  0  0  0  0  0  0  0
  -24.4667  -35.8831   41.5798 O   0  0  0  0  0  0  0  0  0  0  0  0
  -24.4667  -35.1831   40.2798 C   0  0  0  0  0  0  0  0  0  0  0  0
  -23.5667  -34.0831   40.0798 C   0  0  0  0  0  0  0  0  0  0  0  0
  -22.3667  -34.0831   39.3798 C   0  0  0  0  0  0  0  0  0  0  0  0
  -21.8667  -33.5831   38.1798 N   0  0  0  0  0  0  0  0  0  0  0  0
  -23.1667  -33.3831   37.5798 C   0  0  0  0  0  0  0  0  0  0  0  0
  -24.4667  -33.7831   37.6798 C   0  0  0  0  0  0  0  0  0  0  0  0
  -24.8667  -33.6831   42.2798 O   0  0  0  0  0  0  0  0  0  0  0  0
  -23.7667  -33.2831   41.2798 C   0  0  0  0  0  0  0  0  0  0  0  0
  -25.0667  -33.4831   36.3798 O   0  0  0  0  0  0  0  0  0  0  0  0
  -22.6667  -33.2831   36.1798 C   0  0  0  0  0  0  0  0  0  0  0  0
  2  1  2  0
  3  1  1  0
  4  1  1  0
  5  4  1  0
  6  5  1  0
  7  6  1  0
  8  7  1  0
  9  8  1  0
 10  9  1  0
 11  1  1  0
 12  6  1  0
 12 11  1  0
 13 10  1  0
 14  9  1  0
M  END
>  <ID>  (1) 
conformer_0

$$$$
