
     RDKit          3D

 15 16  0  0  0  0  0  0  0  0999 V2000
  -24.7661  -35.1678   42.8566 P   0  0  0  0  0  4  0  0  0  0  0  0
  -23.7661  -35.2677   43.9566 O   0  0  0  0  0  1  0  0  0  0  0  0
  -26.1661  -35.0678   42.9566 O   0  0  0  0  0  0  0  0  0  0  0  0
  -23.9662  -34.7677   41.6566 O   0  0  0  0  0  0  0  0  0  0  0  0
  -23.9662  -33.5677   40.8566 C   0  0  0  0  0  0  0  0  0  0  0  0
  -23.2661  -33.6677   39.5566 C   0  0  0  0  0  0  0  0  0  0  0  0
  -21.8661  -33.8677   39.4566 C   0  0  0  0  0  0  0  0  0  0  0  0
  -21.2661  -33.4677   38.3566 N   0  0  0  0  0  0  0  0  0  0  0  0
  -23.8661  -33.7677   38.2566 C   0  0  0  0  0  0  0  0  0  0  0  0
  -23.1661  -33.6677   36.9566 C   0  0  0  0  0  0  0  0  0  0  0  0
  -22.3661  -32.7677   36.2566 N   0  0  0  0  0  0  0  0  0  0  0  0
  -23.8661  -34.3677   36.1566 O   0  0  0  0  0  0  0  0  0  0  0  0
  -24.6661  -36.5678   42.3566 O   0  0  0  0  0  0  0  0  0  0  0  0
  -25.3661  -37.6678   42.7566 C   0  0  0  0  0  0  0  0  0  0  0  0
  -22.2661  -32.9677   37.5566 C   0  0  0  0  0  0  0  0  0  0  0  0
  2  1  2  0
  3  1  1  0
  4  1  1  0
  5  4  1  0
  6  5  1  0
  7  6  1  0
  8  7  1  0
  9  6  1  0
 10  9  1  0
 11 10  1  0
 12 10  1  0
 13  1  1  0
 14 13  1  0
 15  8  1  0
 15 10  1  0
 15 11  1  0
M  END
>  <ID>  (1) 
conformer_0

$$$$
