
     RDKit          3D

 14 14  0  0  0  0  0  0  0  0999 V2000
  -24.7607  -35.0111   42.3697 P   0  0  0  0  0  4  0  0  0  0  0  0
  -23.7607  -34.9111   43.4697 O   0  0  0  0  0  1  0  0  0  0  0  0
  -26.1607  -34.5111   42.5697 O   0  0  0  0  0  0  0  0  0  0  0  0
  -24.8607  -36.3111   41.6697 O   0  0  0  0  0  0  0  0  0  0  0  0
  -24.1607  -34.2111   41.2697 O   0  0  0  0  0  0  0  0  0  0  0  0
  -23.7607  -34.6111   39.9697 C   0  0  0  0  0  0  0  0  0  0  0  0
  -22.5607  -33.8111   39.5697 C   0  0  0  0  0  0  0  0  0  0  0  0
  -22.5607  -33.3111   38.1697 C   0  0  0  0  0  0  0  0  0  0  0  0
  -23.8607  -33.6111   37.5697 C   0  0  0  0  0  0  0  0  0  0  0  0
  -23.8607  -33.8111   36.1697 C   0  0  0  0  0  0  0  0  0  0  0  0
  -22.5607  -33.4111   35.6697 C   0  0  0  0  0  0  0  0  0  0  0  0
  -22.3607  -33.5111   34.2697 C   0  0  0  0  0  0  0  0  0  0  0  0
  -23.5607  -32.7111   33.8697 O   0  0  0  0  0  0  0  0  0  0  0  0
  -21.8607  -33.2111   36.9697 N   0  0  0  0  0  0  0  0  0  0  0  0
  2  1  2  0
  3  1  1  0
  4  1  1  0
  5  1  1  0
  6  5  1  0
  7  6  1  0
  8  7  1  0
  9  8  2  0
 10  9  1  0
 11 10  2  0
 12 11  1  0
 13 12  1  0
 14  8  1  0
 14 11  1  0
M  END
>  <ID>  (1) 
conformer_0

$$$$
