
     RDKit          3D

  9  8  0  0  0  0  0  0  0  0999 V2000
  -24.6597  -34.8235   42.8477 P   0  0  0  0  0  4  0  0  0  0  0  0
  -23.7597  -35.1235   43.9477 O   0  0  0  0  0  1  0  0  0  0  0  0
  -26.0597  -35.3235   43.0477 O   0  0  0  0  0  0  0  0  0  0  0  0
  -23.9597  -34.7235   41.5477 O   0  0  0  0  0  0  0  0  0  0  0  0
  -23.4597  -33.8235   40.5477 C   0  0  0  0  0  0  0  0  0  0  0  0
  -22.4597  -34.1235   39.5477 C   0  0  0  0  0  0  0  0  0  0  0  0
  -22.5597  -33.3235   38.3477 C   0  0  0  0  0  0  0  0  0  0  0  0
  -22.2597  -32.9235   37.2477 N   0  0  0  0  0  0  0  0  0  0  0  0
  -24.5597  -33.4235   43.3477 O   0  0  0  0  0  0  0  0  0  0  0  0
  2  1  2  0
  3  1  1  0
  4  1  1  0
  5  4  1  0
  6  5  1  0
  7  6  1  0
  8  7  3  0
  9  1  1  0
M  END
>  <ID>  (1) 
conformer_0

$$$$
