
     RDKit          3D

 15 15  0  0  0  0  0  0  0  0999 V2000
  -24.9656  -34.7253   42.9476 P   0  0  0  0  0  4  0  0  0  0  0  0
  -23.8656  -35.0253   43.8476 O   0  0  0  0  0  1  0  0  0  0  0  0
  -26.0656  -35.7253   43.1476 O   0  0  0  0  0  0  0  0  0  0  0  0
  -24.4656  -34.6253   41.5476 O   0  0  0  0  0  0  0  0  0  0  0  0
  -24.4656  -33.6253   40.5476 C   0  0  0  0  0  0  0  0  0  0  0  0
  -23.3656  -33.7253   39.5476 C   0  0  0  0  0  0  0  0  0  0  0  0
  -23.6656  -33.8253   38.1476 C   0  0  0  0  0  0  0  0  0  0  0  0
  -22.8656  -33.2253   37.2476 C   0  0  0  0  0  0  0  0  0  0  0  0
  -22.8656  -33.6253   35.8476 C   0  0  0  0  0  0  0  0  0  0  0  0
  -22.1656  -32.9253   34.9476 N   0  0  0  0  0  0  0  0  0  0  0  0
  -24.1656  -33.9253   35.6476 N   0  0  0  0  0  0  0  0  0  0  0  0
  -25.2656  -33.3253   43.2476 O   0  0  0  0  0  0  0  0  0  0  0  0
  -25.0656  -33.5253   36.4476 O   0  0  0  0  0  0  0  0  0  0  0  0
  -24.9656  -34.1253   37.7476 N   0  0  0  0  0  0  0  0  0  0  0  0
  -21.9656  -33.7253   39.8476 C   0  0  0  0  0  0  0  0  0  0  0  0
  2  1  2  0
  3  1  1  0
  4  1  1  0
  5  4  1  0
  6  5  1  0
  7  6  1  0
  8  7  1  0
  9  8  1  0
 10  9  1  0
 11  9  2  0
 12  1  1  0
 13 11  1  0
 14  7  1  0
 14 13  1  0
 15  6  1  0
M  END
>  <ID>  (1) 
conformer_0

$$$$
