
     RDKit          3D

 16 17  0  0  0  0  0  0  0  0999 V2000
  -22.9427  -33.1944   37.0571 C   0  0  0  0  0  0  0  0  0  0  0  0
  -21.8427  -33.4944   37.9571 N   0  0  0  0  0  0  0  0  0  0  0  0
  -22.8427  -33.3944   35.7571 C   0  0  0  0  0  0  0  0  0  0  0  0
  -22.1427  -33.8944   39.2571 C   0  0  0  0  0  0  0  0  0  0  0  0
  -23.5427  -33.7944   39.3571 C   0  0  0  0  0  0  0  0  0  0  0  0
  -24.0427  -33.5944   37.9571 C   0  0  0  0  0  0  0  0  0  0  0  0
  -23.1427  -32.6944   34.6571 N   0  0  0  0  0  0  0  0  0  0  0  0
  -24.3427  -34.7944   40.0571 C   0  0  0  0  0  0  0  0  0  0  0  0
  -25.1427  -34.4944   41.1571 O   0  0  0  0  0  0  0  0  0  0  0  0
  -24.9427  -35.1944   42.4571 P   0  0  0  0  0  4  0  0  0  0  0  0
  -23.8427  -34.9944   43.4571 O   0  0  0  0  0  1  0  0  0  0  0  0
  -25.0427  -36.5944   42.1571 O   0  0  0  0  0  0  0  0  0  0  0  0
  -26.1427  -34.7944   43.2571 O   0  0  0  0  0  0  0  0  0  0  0  0
  -25.1427  -33.4944   36.9571 O   0  0  0  0  0  0  0  0  0  0  0  0
  -24.9427  -33.0944   36.0571 C   0  0  0  0  0  0  0  0  0  0  0  0
  -24.0427  -32.6944   35.2571 C   0  0  0  0  0  0  0  0  0  0  0  0
  2  1  2  0
  3  1  1  0
  4  2  1  0
  5  4  2  0
  6  1  1  0
  6  5  1  0
  7  3  1  0
  8  5  1  0
  9  8  1  0
 10  9  1  0
 11 10  2  0
 12 10  1  0
 13 10  1  0
 14  6  1  0
 15 14  1  0
 16  7  1  0
 16 15  1  0
M  END
>  <ID>  (1) 
conformer_0

$$$$
