
     RDKit          3D

 12 13  0  0  0  0  0  0  0  0999 V2000
  -22.8515  -33.2718   37.5392 C   0  0  0  0  0  0  0  0  0  0  0  0
  -21.6515  -33.3718   38.0392 N   0  0  0  0  0  0  0  0  0  0  0  0
  -23.0515  -33.3718   36.1392 C   0  0  0  0  0  0  0  0  0  0  0  0
  -21.4515  -33.7718   39.3392 C   0  0  0  0  0  0  0  0  0  0  0  0
  -22.7515  -33.9718   39.9392 C   0  0  0  0  0  0  0  0  0  0  0  0
  -23.9515  -33.9718   39.5392 C   0  0  0  0  0  0  0  0  0  0  0  0
  -23.9515  -33.7718   38.1392 C   0  0  0  0  0  0  0  0  0  0  0  0
  -25.2515  -33.8718   40.2392 C   0  0  0  0  0  0  0  0  0  0  0  0
  -24.3515  -33.1718   35.8392 C   0  0  0  0  0  0  0  0  0  0  0  0
  -26.4515  -33.4718   39.5392 N   0  0  0  0  0  0  0  0  0  0  0  0
  -24.8515  -32.7718   34.8392 O   0  0  0  0  0  0  0  0  0  0  0  0
  -23.9515  -34.2718   36.0392 N   0  0  0  0  0  0  0  0  0  0  0  0
  2  1  2  0
  3  1  1  0
  4  2  1  0
  5  4  2  0
  6  5  1  0
  7  1  1  0
  7  6  2  0
  8  6  1  0
  9  3  1  0
 10  8  1  0
 11  9  2  0
 12  3  1  0
 12  9  1  0
M  END
>  <ID>  (1) 
conformer_0

$$$$
