
     RDKit          3D

 14 14  0  0  0  0  0  0  0  0999 V2000
  -24.6597  -34.8235   42.8477 P   0  0  0  0  0  4  0  0  0  0  0  0
  -23.7597  -35.1235   43.9477 O   0  0  0  0  0  1  0  0  0  0  0  0
  -26.0597  -35.3235   42.8477 O   0  0  0  0  0  0  0  0  0  0  0  0
  -23.9597  -34.6235   41.5477 O   0  0  0  0  0  0  0  0  0  0  0  0
  -23.2597  -34.0235   40.5477 C   0  0  0  0  0  0  0  0  0  0  0  0
  -23.6597  -33.9235   39.1477 C   0  0  0  0  0  0  0  0  0  0  0  0
  -22.6597  -33.2235   38.3477 C   0  0  0  0  0  0  0  0  0  0  0  0
  -22.1597  -33.2235   37.0477 N   0  0  0  0  0  0  0  0  0  0  0  0
  -23.1597  -33.4235   36.1477 C   0  0  0  0  0  0  0  0  0  0  0  0
  -24.4597  -33.6235   36.8477 C   0  0  0  0  0  0  0  0  0  0  0  0
  -25.5597  -33.2235   36.2477 O   0  0  0  0  0  0  0  0  0  0  0  0
  -23.2597  -33.0235   34.8477 C   0  0  0  0  0  0  0  0  0  0  0  0
  -24.6597  -34.2235   38.1477 C   0  0  0  0  0  0  0  0  0  0  0  0
  -24.8597  -33.4235   43.1477 O   0  0  0  0  0  0  0  0  0  0  0  0
  2  1  2  0
  3  1  1  0
  4  1  1  0
  5  4  1  0
  6  5  2  3
  7  6  1  0
  8  7  1  0
  9  8  1  0
 10  9  1  0
 11 10  1  0
 12  9  2  0
 13  6  1  0
 13 10  1  0
 14  1  1  0
M  END
>  <ID>  (1) 
conformer_0

$$$$
