
     RDKit          3D

 25 25  0  0  0  0  0  0  0  0999 V2000
   90.5155   47.3063   70.6541 C   0  0  0  0  0  0  0  0  0  0  0  0
   95.2975   50.1028   73.0058 C   0  0  0  0  0  0  0  0  0  0  0  0
   94.0504   50.0540   72.3069 C   0  0  0  0  0  0  0  0  0  0  0  0
   93.3153   46.7160   72.8555 C   0  0  0  0  0  0  0  0  0  0  0  0
   91.4698   47.8549   70.7282 N   0  0  0  0  0  0  0  0  0  0  0  0
   92.6701   45.6674   73.0313 N   0  0  0  0  0  0  0  0  0  0  0  0
   93.5314   47.5673   72.2804 N   0  0  0  0  0  0  0  0  0  0  0  0
   99.5370   46.1040   75.8349 P   0  0  0  0  0  4  0  0  0  0  0  0
   96.6940   49.3872   73.0928 C   0  0  2  0  0  0  0  0  0  0  0  0
   95.3893   48.5692   71.6375 O   0  0  0  0  0  0  0  0  0  0  0  0
   89.8734   44.7219   72.7115 N   0  0  0  0  0  0  0  0  0  0  0  0
   96.4135   48.5954   73.9713 O   0  0  0  0  0  0  0  0  0  0  0  0
   98.1310   46.8488   74.8131 O   0  0  0  0  0  0  0  0  0  0  0  0
   90.8477   45.7388   72.1978 C   0  0  0  0  0  0  0  0  0  0  0  0
   99.9524   46.4072   76.9233 O   0  0  0  0  0  0  0  0  0  0  0  0
   96.1041   47.0217   76.0792 O   0  0  0  0  0  0  0  0  0  0  0  0
   93.5672   51.0330   71.2727 O   0  0  0  0  0  0  0  0  0  0  0  0
   89.8286   46.2728   70.9377 N   0  0  0  0  0  0  0  0  0  0  0  0
   93.9752   51.2223   73.5994 O   0  0  0  0  0  0  0  0  0  0  0  0
   97.5040   47.8761   75.1410 P   0  0  0  0  0  0  0  0  0  0  0  0
   92.1033   46.7834   71.7914 C   0  0  0  0  0  0  0  0  0  0  0  0
   94.3002   48.9822   71.7158 C   0  0  2  0  0  0  0  0  0  0  0  0
  100.1907   46.1886   74.7088 O   0  0  0  0  0  1  0  0  0  0  0  0
   98.0474   48.9681   75.6206 O   0  0  0  0  0  0  0  0  0  0  0  0
   98.8391   44.7853   76.0123 O   0  0  0  0  0  0  0  0  0  0  0  0
  3  2  1  0
  5  1  2  0
  6  4  2  3
  7  4  1  0
  9  2  1  0
  9 12  1  1
 13  8  1  0
 14 11  1  0
 15  8  1  0
 17  3  1  0
 18  1  1  0
 18 14  1  0
 19  3  1  0
 20 13  1  0
 20 16  1  0
 21  4  1  0
 21  5  1  0
 21 14  2  0
 22  3  1  0
 22  7  1  0
 22 10  1  1
 23  8  1  0
 24  9  1  0
 24 20  1  0
 25  8  1  0
M  RAD  2   8   2  23   2
M  END
>  <ID>  (1) 
conformer_0

$$$$
