
     RDKit          3D

 24 27  0  0  0  0  0  0  0  0999 V2000
   93.9520   49.4830   71.9034 C   0  0  0  0  0  0  0  0  0  0  0  0
   90.7115   46.7116   70.6709 C   0  0  0  0  0  0  0  0  0  0  0  0
   94.7039   50.1426   72.5321 C   0  0  0  0  0  0  0  0  0  0  0  0
   93.6769   46.8674   72.9169 C   0  0  0  0  0  0  0  0  0  0  0  0
   90.2186   45.7410   71.1791 N   0  0  0  0  0  0  0  0  0  0  0  0
   96.0403   50.2529   73.4318 C   0  0  0  0  0  0  0  0  0  0  0  0
   93.1841   45.8332   73.1480 N   0  0  0  0  0  0  0  0  0  0  0  0
   99.2689   46.1010   75.7928 P   0  0  0  0  0  4  0  0  0  0  0  0
   93.5099   47.8123   72.2247 N   0  0  0  0  0  0  0  0  0  0  0  0
   96.2954   46.7807   76.2483 O   0  0  0  0  0  0  0  0  0  0  0  0
   99.6484   46.5370   76.8835 O   0  0  0  0  0  0  0  0  0  0  0  0
   90.9705   43.9959   72.7775 N   0  0  0  0  0  0  0  0  0  0  0  0
   93.3836   50.8331   71.2490 O   0  0  0  0  0  0  0  0  0  0  0  0
   97.7340   47.9783   75.0037 O   0  0  0  0  0  0  0  0  0  0  0  0
   91.5425   45.5175   72.3206 C   0  0  0  0  0  0  0  0  0  0  0  0
   95.5911   48.8699   72.9874 O   0  0  0  0  0  0  0  0  0  0  0  0
   99.7697   46.3872   74.6821 O   0  0  0  0  0  1  0  0  0  0  0  0
   91.6157   47.4605   70.5498 N   0  0  0  0  0  0  0  0  0  0  0  0
   97.1170   48.8483   73.4986 C   0  0  0  0  0  0  0  0  0  0  0  0
   92.4960   46.9818   71.7801 C   0  0  0  0  0  0  0  0  0  0  0  0
   98.3993   45.0032   75.9804 O   0  0  0  0  0  0  0  0  0  0  0  0
   96.9444   46.8160   75.2169 P   0  0  0  0  0  4  0  0  0  0  0  0
   95.1977   51.5214   71.8497 O   0  0  0  0  0  0  0  0  0  0  0  0
   96.9515   46.2238   74.2466 O   0  0  0  0  0  1  0  0  0  0  0  0
  3  1  1  0
  5  2  2  0
  6  3  1  0
  7  4  2  0
  9  1  1  0
  9  4  1  0
 11  8  1  0
 13  1  1  0
 15  5  1  0
 15  7  1  0
 15 12  1  0
 16  6  1  0
 17  8  1  0
 18  2  1  0
 19  6  1  0
 19 14  1  0
 19 16  1  0
 20  4  1  0
 20  9  1  0
 20 15  1  0
 20 18  1  0
 21  8  1  0
 22  8  1  0
 22 10  1  0
 22 14  1  0
 23  3  1  0
 24 22  1  0
M  RAD  4   8   2  17   2  22   2  24   2
M  END
>  <ID>  (1) 
conformer_0

$$$$
