
     RDKit          3D

 25 25  0  0  0  0  0  0  0  0999 V2000
   90.1368   46.8610   70.7209 C   0  0  0  0  0  0  0  0  0  0  0  0
   96.9027   49.1839   73.0173 C   0  0  0  0  0  0  0  0  0  0  0  0
   95.8509   50.1853   73.3015 C   0  0  2  0  0  0  0  0  0  0  0  0
   93.2967   46.7593   72.6011 C   0  0  0  0  0  0  0  0  0  0  0  0
   89.6310   45.8630   71.2508 N   0  0  0  0  0  0  0  0  0  0  0  0
   92.8695   45.7955   72.8853 N   0  0  0  0  0  0  0  0  0  0  0  0
   96.2418   46.7973   76.0983 O   0  0  0  0  0  0  0  0  0  0  0  0
   99.6496   46.2429   75.7833 P   0  0  0  0  0  4  0  0  0  0  0  0
   93.4065   47.6615   71.9950 N   0  0  0  0  0  0  0  0  0  0  0  0
   90.2235   44.2965   73.0307 N   0  0  0  0  0  0  0  0  0  0  0  0
   91.3284   47.6347   70.6539 N   0  0  0  0  0  0  0  0  0  0  0  0
   94.7182   50.0176   72.1796 C   0  0  1  0  0  0  0  0  0  0  0  0
   95.5161   48.5334   71.8545 O   0  0  0  0  0  0  0  0  0  0  0  0
   90.8820   45.5657   72.4108 C   0  0  0  0  0  0  0  0  0  0  0  0
  100.3919   46.5709   76.7987 O   0  0  0  0  0  0  0  0  0  0  0  0
   98.3778   46.7185   74.7721 O   0  0  0  0  0  0  0  0  0  0  0  0
   96.6213   48.3234   74.1715 O   0  0  0  0  0  0  0  0  0  0  0  0
   94.2982   51.1340   71.3861 O   0  0  0  0  0  0  0  0  0  0  0  0
   95.1956   51.5217   73.6274 O   0  0  0  0  0  0  0  0  0  0  0  0
   97.1053   47.4881   75.2399 P   0  0  1  0  0  4  0  0  0  0  0  0
   94.1921   49.1434   71.6534 C   0  0  1  0  0  0  0  0  0  0  0  0
   91.9545   46.7611   71.7008 C   0  0  0  0  0  0  0  0  0  0  0  0
  100.4940   46.1180   74.6456 O   0  0  0  0  0  1  0  0  0  0  0  0
   98.2145   48.7357   75.9623 O   0  0  0  0  0  1  0  0  0  0  0  0
   99.1277   45.0021   76.3553 O   0  0  0  0  0  0  0  0  0  0  0  0
  3  2  1  0
  5  1  2  0
  6  4  2  3
  9  4  1  0
 11  1  1  0
 12  3  1  0
 14  5  1  0
 14 10  1  0
 15  8  1  0
 16  8  1  0
 17  2  1  0
 12 18  1  6
  3 19  1  6
 20  7  1  1
 20 16  1  0
 20 17  1  0
 21  9  1  0
 21 12  1  0
 21 13  1  6
 22  4  1  0
 22 11  1  0
 22 14  2  0
 23  8  1  0
 24 20  1  0
 25  8  1  0
M  RAD  4   8   2  20   2  23   2  24   2
M  END
>  <ID>  (1) 
conformer_0

$$$$
