
     RDKit          3D

 25 26  0  0  0  0  0  0  0  0999 V2000
   94.6311   50.3495   72.6837 C   0  0  1  0  0  0  0  0  0  0  0  0
   90.6766   46.7942   70.2163 C   0  0  0  0  0  0  0  0  0  0  0  0
   94.2605   49.3774   72.0407 C   0  0  2  0  0  0  0  0  0  0  0  0
   93.3516   46.9365   72.9882 C   0  0  0  0  0  0  0  0  0  0  0  0
   91.8626   47.5494   70.5196 N   0  0  0  0  0  0  0  0  0  0  0  0
   99.4960   46.0671   75.9054 P   0  0  0  0  0  5  0  0  0  0  0  0
   95.9547   50.3549   73.2099 C   0  0  1  0  0  0  0  0  0  0  0  0
   90.1126   45.9487   70.8888 N   0  0  0  0  0  0  0  0  0  0  0  0
   92.7552   46.0118   73.1728 N   0  0  0  0  0  0  0  0  0  0  0  0
   96.2129   47.0457   76.1563 O   0  0  0  0  0  0  0  0  0  0  0  0
   93.6099   47.8129   72.4131 N   0  0  0  0  0  0  0  0  0  0  0  0
   95.4839   48.8133   71.9691 O   0  0  0  0  0  0  0  0  0  0  0  0
   92.1462   46.8463   71.7700 C   0  0  0  0  0  0  0  0  0  0  0  0
   99.4369   47.1714   76.7346 O   0  0  0  0  0  0  0  0  0  0  0  0
   94.3960   51.3229   71.4614 O   0  0  0  0  0  0  0  0  0  0  0  0
   98.5357   46.6091   74.7589 O   0  0  0  0  0  0  0  0  0  0  0  0
   94.9023   51.6166   73.9936 O   0  0  0  0  0  0  0  0  0  0  0  0
  100.8065   45.9870   75.2588 O   0  0  0  0  0  0  0  0  0  0  0  0
   90.3378   44.4112   72.7418 N   0  0  0  0  0  0  0  0  0  0  0  0
   98.9657   44.7169   76.1295 O   0  0  0  0  0  0  0  0  0  0  0  0
   97.0699   46.7121   75.1854 P   0  0  0  0  0  0  0  0  0  0  0  0
   96.9528   48.8831   72.9755 C   0  0  2  0  0  0  0  0  0  0  0  0
   91.0678   45.7822   72.2194 C   0  0  0  0  0  0  0  0  0  0  0  0
   96.4406   45.7491   74.4661 O   0  0  0  0  0  0  0  0  0  0  0  0
   96.4428   48.1422   73.8403 O   0  0  0  0  0  0  0  0  0  0  0  0
  3  1  1  0
  5  2  2  0
  7  1  1  0
  8  2  1  0
  9  4  2  3
  3 11  1  1
 11  4  1  0
 12  3  1  0
 13  4  1  0
 13  5  1  0
 14  6  1  0
  1 15  1  6
 16  6  1  0
  7 17  1  1
 18  6  1  0
 20  6  1  0
 21 10  1  0
 22  7  1  0
 22 12  1  0
 23  8  1  0
 23 13  2  0
 23 19  1  0
 24  6  1  0
 24 21  1  0
 25 21  1  0
 22 25  1  1
M  END
>  <ID>  (1) 
conformer_0

$$$$
