
     RDKit          3D

 25 25  0  0  0  0  0  0  0  0999 V2000
   96.4791   49.4068   73.1347 C   0  0  0  0  0  0  0  0  0  0  0  0
   90.3759   47.1752   70.4955 C   0  0  0  0  0  0  0  0  0  0  0  0
   95.3767   50.2218   73.1987 C   0  0  2  0  0  0  0  0  0  0  0  0
   92.0414   46.8356   71.6521 C   0  0  0  0  0  0  0  0  0  0  0  0
   91.4210   47.7538   70.5943 N   0  0  0  0  0  0  0  0  0  0  0  0
   92.5908   45.7501   73.0528 N   0  0  0  0  0  0  0  0  0  0  0  0
   93.3607   47.6525   71.9771 N   0  0  0  0  0  0  0  0  0  0  0  0
   95.3284   48.5073   71.6252 O   0  0  0  0  0  0  0  0  0  0  0  0
   96.9825   47.2848   75.2690 P   0  0  0  0  0  0  0  0  0  0  0  0
   96.1088   46.9902   76.1861 O   0  0  0  0  0  0  0  0  0  0  0  0
   89.8824   44.5836   72.7003 N   0  0  0  0  0  0  0  0  0  0  0  0
   90.8328   45.7191   72.1468 C   0  0  0  0  0  0  0  0  0  0  0  0
   94.1400   50.0603   72.3202 C   0  0  1  0  0  0  0  0  0  0  0  0
   99.6857   46.1491   77.1432 O   0  0  0  0  0  0  0  0  0  0  0  0
  100.3735   46.2612   74.9804 O   0  0  0  0  0  0  0  0  0  0  0  0
   96.4065   48.3004   74.1336 O   0  0  0  0  0  0  0  0  0  0  0  0
   89.7700   46.0982   70.9691 N   0  0  0  0  0  0  0  0  0  0  0  0
   93.4458   51.1140   71.6619 O   0  0  0  0  0  0  0  0  0  0  0  0
   98.5007   48.5111   75.9782 O   0  0  0  0  0  0  0  0  0  0  0  0
   99.4606   46.1311   75.8943 P   0  0  0  0  0  5  0  0  0  0  0  0
   98.7795   44.6157   75.7225 O   0  0  0  0  0  0  0  0  0  0  0  0
   93.2268   46.6918   72.6819 C   0  0  0  0  0  0  0  0  0  0  0  0
   94.1896   49.0703   71.7677 C   0  0  2  0  0  0  0  0  0  0  0  0
   94.6816   51.5410   73.3012 O   0  0  0  0  0  0  0  0  0  0  0  0
   97.8858   46.5933   74.6427 O   0  0  0  0  0  0  0  0  0  0  0  0
  3  1  1  0
  5  2  2  0
  5  4  1  0
 10  9  1  0
 12  4  2  0
 12 11  1  0
 13  3  1  0
 16  1  1  0
 16  9  1  0
 17  2  1  0
 17 12  1  0
 13 18  1  6
 20 14  1  0
 20 15  1  0
 20 19  1  0
 21 20  1  0
 22  4  1  0
 22  6  2  3
 22  7  1  0
 23  7  1  0
 23  8  1  1
 23 13  1  0
  3 24  1  6
 25  9  1  0
 25 20  1  0
M  END
>  <ID>  (1) 
conformer_0

$$$$
