
     RDKit          3D

 25 25  0  0  0  0  0  0  0  0999 V2000
   94.4801   49.2428   71.9688 C   0  0  2  0  0  0  0  0  0  0  0  0
   90.6026   46.8891   70.8740 C   0  0  0  0  0  0  0  0  0  0  0  0
   96.0837   50.0238   72.7167 C   0  0  0  0  0  0  0  0  0  0  0  0
   93.3658   46.7798   72.6914 C   0  0  0  0  0  0  0  0  0  0  0  0
   91.5692   47.7929   70.6994 N   0  0  0  0  0  0  0  0  0  0  0  0
   93.5606   47.7801   72.0750 N   0  0  0  0  0  0  0  0  0  0  0  0
   99.5549   46.0299   76.1873 P   0  0  0  0  0  4  0  0  0  0  0  0
   92.9169   45.7737   73.0048 N   0  0  0  0  0  0  0  0  0  0  0  0
   90.2462   44.4441   72.8359 N   0  0  0  0  0  0  0  0  0  0  0  0
   97.2006   49.2143   73.0869 C   0  0  0  0  0  0  0  0  0  0  0  0
   96.3961   46.8301   76.1174 O   0  0  0  0  0  0  0  0  0  0  0  0
   89.9540   46.0397   71.0866 N   0  0  0  0  0  0  0  0  0  0  0  0
   96.8927   47.6735   73.8740 O   0  0  0  0  0  0  0  0  0  0  0  0
   92.8785   50.8915   72.7445 O   0  0  0  0  0  0  0  0  0  0  0  0
   98.5566   47.5142   75.2575 O   0  0  0  0  0  0  0  0  0  0  0  0
   95.6856   48.5932   71.8145 O   0  0  0  0  0  0  0  0  0  0  0  0
   98.8306   44.7492   75.3985 O   0  0  0  0  0  0  0  0  0  0  0  0
   91.1642   45.5188   72.2403 C   0  0  0  0  0  0  0  0  0  0  0  0
   95.0855   51.3577   74.1102 O   0  0  0  0  0  0  0  0  0  0  0  0
   94.7883   51.3854   71.5113 O   0  0  0  0  0  0  0  0  0  0  0  0
   99.3392   45.9641   77.1911 O   0  0  0  0  0  0  0  0  0  0  0  0
   94.3635   50.2146   72.6636 C   0  0  0  0  0  0  0  0  0  0  0  0
   92.3135   46.9566   71.6475 C   0  0  1  0  0  0  0  0  0  0  0  0
  100.3804   46.5381   75.4204 O   0  0  0  0  0  1  0  0  0  0  0  0
   97.5757   46.9901   75.0553 P   0  0  0  0  0  0  0  0  0  0  0  0
  5  2  1  0
  6  1  1  0
  6  4  1  0
  8  4  2  3
 10  3  1  0
 12  2  1  0
 13 10  1  0
 15  7  1  0
  1 16  1  1
 16  3  1  0
 17  7  1  0
 18  9  1  0
 18 12  2  3
 21  7  1  0
 22  1  1  0
 22 14  1  0
 22 19  1  0
 22 20  1  0
 23  4  1  0
 23  5  1  1
 23  6  1  0
 24  7  1  0
 25 11  1  0
 25 13  1  0
 25 15  1  0
M  RAD  2   7   2  24   2
M  END
>  <ID>  (1) 
conformer_0

$$$$
