
     RDKit          3D

 24 27  0  0  0  0  0  0  0  0999 V2000
   96.8422   49.1352   73.0507 C   0  0  0  0  0  0  0  0  0  0  0  0
   90.5624   47.1073   70.5986 C   0  0  0  0  0  0  0  0  0  0  0  0
   95.8129   50.1402   73.1802 C   0  0  0  0  0  0  0  0  0  0  0  0
   93.3398   46.9771   73.1236 C   0  0  0  0  0  0  0  0  0  0  0  0
   91.5650   47.6878   70.5856 N   0  0  0  0  0  0  0  0  0  0  0  0
   92.7301   45.8753   73.1773 N   0  0  0  0  0  0  0  0  0  0  0  0
   93.3789   47.8809   72.3142 N   0  0  0  0  0  0  0  0  0  0  0  0
   99.2611   46.2349   76.1099 P   0  0  0  0  0  4  0  0  0  0  0  0
   90.5716   44.2274   72.5646 N   0  0  0  0  0  0  0  0  0  0  0  0
   93.7595   50.8560   71.1644 O   0  0  0  0  0  0  0  0  0  0  0  0
   99.5770   46.6386   77.0112 O   0  0  0  0  0  0  0  0  0  0  0  0
   97.8208   47.5044   75.5065 O   0  0  0  0  0  0  0  0  0  0  0  0
   94.4176   49.9177   72.2992 C   0  0  0  0  0  0  0  0  0  0  0  0
   91.2282   45.7859   72.2223 C   0  0  0  0  0  0  0  0  0  0  0  0
   95.6004   48.7592   73.3987 O   0  0  0  0  0  0  0  0  0  0  0  0
   96.0187   46.9096   76.1252 O   0  0  0  0  0  0  0  0  0  0  0  0
   99.9495   46.4295   74.9949 O   0  0  0  0  0  1  0  0  0  0  0  0
   90.0946   46.0220   71.0034 N   0  0  0  0  0  0  0  0  0  0  0  0
   98.5233   44.7336   75.8798 O   0  0  0  0  0  0  0  0  0  0  0  0
   92.3155   47.0341   71.8114 C   0  0  0  0  0  0  0  0  0  0  0  0
   95.7156   51.0248   71.4795 O   0  0  0  0  0  0  0  0  0  0  0  0
   97.0095   46.8647   75.1465 P   0  0  0  0  0  4  0  0  0  0  0  0
   94.2954   49.1517   71.6770 C   0  0  0  0  0  0  0  0  0  0  0  0
   96.8828   46.4963   74.1549 O   0  0  0  0  0  1  0  0  0  0  0  0
  3  1  1  0
  5  2  2  0
  6  4  1  0
  7  4  1  0
 11  8  1  0
 12  8  1  0
 13  3  1  0
 13 10  1  0
 14  6  1  0
 14  9  1  0
 15  1  1  0
 15  3  1  0
 17  8  1  0
 18  2  1  0
 18 14  1  0
 19  8  1  0
 20  4  1  0
 20  5  1  0
 20  7  1  0
 20 14  1  0
 21 13  1  0
 22  1  1  0
 22 12  1  0
 22 16  1  0
 23  7  1  0
 23 13  1  0
 24 22  1  0
M  RAD  4   8   2  17   2  22   2  24   2
M  END
>  <ID>  (1) 
conformer_0

$$$$
