
     RDKit          3D

 24 25  0  0  0  0  0  0  0  0999 V2000
   94.5215   50.0446   72.5228 C   0  0  0  0  0  0  0  0  0  0  0  0
   90.2287   46.8309   70.5171 C   0  0  0  0  0  0  0  0  0  0  0  0
   93.2048   46.8883   72.6639 C   0  0  0  0  0  0  0  0  0  0  0  0
   93.8395   49.4762   71.9850 C   0  0  0  0  0  0  0  0  0  0  0  0
   91.2555   47.5934   70.4655 N   0  0  0  0  0  0  0  0  0  0  0  0
   99.1898   46.0385   75.7477 P   0  0  0  0  0  5  0  0  0  0  0  0
   92.7191   45.8928   72.9818 N   0  0  0  0  0  0  0  0  0  0  0  0
   95.9698   46.9818   75.9749 O   0  0  0  0  0  0  0  0  0  0  0  0
   99.6728   46.9085   76.7766 O   0  0  0  0  0  0  0  0  0  0  0  0
   93.2307   47.8219   72.0908 N   0  0  0  0  0  0  0  0  0  0  0  0
   96.7995   47.7120   75.0188 P   0  0  0  0  0  0  0  0  0  0  0  0
   97.7878   46.7011   74.5058 O   0  0  0  0  0  0  0  0  0  0  0  0
  100.1813   46.1299   74.7519 O   0  0  0  0  0  0  0  0  0  0  0  0
   91.0849   45.6905   72.1673 C   0  0  0  0  0  0  0  0  0  0  0  0
   95.2946   48.8740   71.5060 O   0  0  0  0  0  0  0  0  0  0  0  0
   90.5015   44.2915   72.6402 N   0  0  0  0  0  0  0  0  0  0  0  0
   98.6842   44.7805   76.0263 O   0  0  0  0  0  0  0  0  0  0  0  0
   93.2018   50.8773   72.8323 O   0  0  0  0  0  0  0  0  0  0  0  0
   96.0435   49.8514   72.7969 C   0  0  0  0  0  0  0  0  0  0  0  0
   89.9333   45.9872   71.0974 N   0  0  0  0  0  0  0  0  0  0  0  0
   92.0302   47.0618   71.5102 C   0  0  0  0  0  3  0  0  0  0  0  0
   95.2611   51.5131   72.1604 O   0  0  0  0  0  0  0  0  0  0  0  0
   97.5473   48.9485   75.5700 O   0  0  0  0  0  0  0  0  0  0  0  0
   96.1703   48.4824   73.8423 O   0  0  0  0  0  0  0  0  0  0  0  0
  4  1  1  0
  5  2  2  0
  7  3  2  0
  9  6  1  0
 10  3  1  0
 10  4  1  0
 11  8  1  0
 12  6  1  0
 12 11  1  0
 13  6  1  0
 14  7  1  0
 15  4  1  0
 16 14  1  0
 17  6  1  0
 18  1  1  0
 19  1  1  0
 20  2  1  0
 20 14  1  0
 21  5  1  0
 21 10  1  0
 21 14  1  0
 22  1  1  0
 23  6  1  0
 24 11  1  0
 24 19  1  0
M  RAD  1  21   2
M  END
>  <ID>  (1) 
conformer_0

$$$$
