
     RDKit          3D

 22 22  0  0  0  0  0  0  0  0999 V2000
   95.7999   50.1436   72.8800 C   0  0  1  0  0  0  0  0  0  0  0  0
   90.4995   46.6796   70.8808 C   0  0  0  0  0  0  0  0  0  0  0  0
   96.9714   49.0660   73.1925 C   0  0  0  0  0  0  0  0  0  0  0  0
   93.5146   46.8949   72.7664 C   0  0  0  0  0  0  0  0  0  0  0  0
   93.1172   45.8558   72.8914 N   0  0  0  0  0  0  0  0  0  0  0  0
   91.4531   47.5324   70.7958 N   0  0  0  0  0  0  0  0  0  0  0  0
   95.5182   48.7474   71.8718 O   0  0  0  0  0  0  0  0  0  0  0  0
   93.4695   47.8608   72.1097 N   0  0  0  0  0  0  0  0  0  0  0  0
   99.3524   46.1217   76.0871 P   0  0  0  0  0  0  0  0  0  0  0  0
   94.4386   50.2802   72.2298 C   0  0  1  0  0  0  0  0  0  0  0  0
   96.2658   46.7835   76.0971 O   0  0  0  0  0  0  0  0  0  0  0  0
   90.1288   44.5547   73.0729 N   0  0  0  0  0  0  0  0  0  0  0  0
   99.0052   47.0164   75.4377 O   0  0  0  0  0  0  0  0  0  0  0  0
   91.0699   45.5992   72.4425 C   0  0  0  0  0  0  0  0  0  0  0  0
   95.3645   51.5884   73.1697 O   0  0  0  0  0  0  0  0  0  0  0  0
   99.1643   45.1770   76.4513 O   0  0  0  0  0  0  0  0  0  0  0  0
   97.1320   47.5047   74.2011 O   0  0  0  0  0  0  0  0  0  0  0  0
   89.9498   45.8544   71.2401 N   0  0  0  0  0  0  0  0  0  0  0  0
   93.6570   51.2323   71.5175 O   0  0  0  0  0  0  0  0  0  0  0  0
   93.9467   49.2897   71.6609 C   0  0  1  0  0  0  0  0  0  0  0  0
   92.2858   46.7820   71.8758 C   0  0  0  0  0  0  0  0  0  0  0  0
   97.2493   47.1976   75.1245 P   0  0  0  0  0  0  0  0  0  0  0  0
  3  1  1  0
  5  4  2  3
  6  2  1  0
  7  1  1  0
  8  4  1  0
 10  1  1  0
 13  9  1  0
 14 12  1  0
  1 15  1  6
 16  9  1  0
 17  3  1  0
 18  2  1  0
 18 14  2  3
 10 19  1  6
 20  7  1  0
 20  8  1  1
 20 10  1  0
 21  4  1  0
 21  6  2  3
 22 11  1  0
 22 13  1  0
 22 17  1  0
M  END
>  <ID>  (1) 
conformer_0

$$$$
