
     RDKit          3D

 25 25  0  0  0  0  0  0  0  0999 V2000
   90.9571   45.7453   72.1497 C   0  0  0  0  0  0  0  0  0  0  0  0
   94.1101   49.3044   71.8751 C   0  0  2  0  0  0  0  0  0  0  0  0
   94.3658   50.0084   72.5622 C   0  0  0  0  0  0  0  0  0  0  0  0
   93.3615   46.9112   72.8923 C   0  0  0  0  0  0  0  0  0  0  0  0
   89.9268   46.2646   70.8104 N   0  0  0  0  0  0  0  0  0  0  0  0
   99.4422   46.1293   75.9704 P   0  0  0  0  0  4  0  0  0  0  0  0
   92.7775   45.9279   73.0947 N   0  0  0  0  0  0  0  0  0  0  0  0
   93.3885   47.8193   72.2592 N   0  0  0  0  0  0  0  0  0  0  0  0
   96.0380   49.9388   72.6729 C   0  0  0  0  0  0  0  0  0  0  0  0
   99.7381   46.6120   76.9926 O   0  0  0  0  0  0  0  0  0  0  0  0
   98.0834   47.2983   75.2705 O   0  0  0  0  0  0  0  0  0  0  0  0
   90.0939   44.5914   72.5654 N   0  0  0  0  0  0  0  0  0  0  0  0
   95.9778   46.9161   75.7945 O   0  0  0  0  0  0  0  0  0  0  0  0
   95.5657   48.7429   71.8020 O   0  0  0  0  0  0  0  0  0  0  0  0
   92.9726   50.7304   71.9100 O   0  0  0  0  0  0  0  0  0  0  0  0
   90.6318   47.2263   70.4440 C   0  0  0  0  0  0  0  0  0  0  0  0
  100.1241   46.1873   74.8695 O   0  0  0  0  0  1  0  0  0  0  0  0
   91.5440   47.8644   70.5690 N   0  0  0  0  0  0  0  0  0  0  0  0
   98.3922   45.0102   75.9983 O   0  0  0  0  0  0  0  0  0  0  0  0
   97.1897   47.2174   75.0652 P   0  0  0  0  0  0  0  0  0  0  0  0
   94.5450   51.1448   73.7688 O   0  0  0  0  0  0  0  0  0  0  0  0
   97.3721   49.0195   73.0915 C   0  0  0  0  0  0  0  0  0  0  0  0
   92.1513   46.9477   71.8358 C   0  0  2  0  0  0  0  0  0  0  0  0
   95.0438   51.2807   71.4323 O   0  0  0  0  0  0  0  0  0  0  0  0
   96.7745   48.3405   74.0317 O   0  0  0  0  0  0  0  0  0  0  0  0
  3  2  1  0
  5  1  2  0
  7  4  2  3
  2  8  1  1
  8  4  1  0
 10  6  1  0
 11  6  1  0
 12  1  1  0
 14  2  1  0
 14  9  1  0
 15  3  1  0
 16  5  1  0
 17  6  1  0
 18 16  2  0
 19  6  1  0
 20 11  1  0
 20 13  1  0
 21  3  1  0
 22  9  1  0
 23  1  1  0
 23  4  1  1
 23 18  1  0
 24  3  1  0
 25 20  1  0
 25 22  1  0
M  RAD  2   6   2  17   2
M  END
>  <ID>  (1) 
conformer_0

$$$$
