
     RDKit          3D

 26 26  0  0  0  0  0  0  0  0999 V2000
   95.9015   50.1510   73.0166 C   0  0  0  0  0  0  0  0  0  0  0  0
   90.4054   47.3024   70.4375 C   0  0  0  0  0  0  0  0  0  0  0  0
   94.4305   49.9058   72.5757 C   0  0  0  0  0  0  0  0  0  0  0  0
   91.9767   46.9263   71.6418 C   0  0  0  0  0  0  0  0  0  0  0  0
   91.4582   47.9744   70.5726 N   0  0  0  0  0  0  0  0  0  0  0  0
   92.6217   45.8110   73.0265 N   0  0  0  0  0  0  0  0  0  0  0  0
   99.2952   46.4082   75.8957 P   0  0  0  0  0  5  0  0  0  0  0  0
   93.3997   47.7134   72.0667 N   0  0  0  0  0  0  0  0  0  0  0  0
   95.5517   48.8447   71.4859 O   0  0  0  0  0  0  0  0  0  0  0  0
   95.8998   47.3154   76.2137 O   0  0  0  0  0  0  0  0  0  0  0  0
   97.1423   49.2103   72.9769 C   0  0  0  0  0  0  0  0  0  0  0  0
   93.6221   50.8522   73.5509 O   0  0  0  0  0  0  0  0  0  0  0  0
   89.9528   44.6985   72.6710 N   0  0  0  0  0  0  0  0  0  0  0  0
   98.9471   44.5337   75.4034 O   0  0  0  0  0  0  0  0  0  0  0  0
   89.8383   46.3033   70.8455 N   0  0  0  0  0  0  0  0  0  0  0  0
   90.8331   45.7890   72.1039 C   0  0  0  0  0  0  0  0  0  0  0  0
   96.2696   46.0739   74.1096 O   0  0  0  0  0  1  0  0  0  0  0  0
   99.7249   46.5201   76.9555 O   0  0  0  0  0  0  0  0  0  0  0  0
   98.2515   47.8639   75.2606 O   0  0  0  0  0  0  0  0  0  0  0  0
   96.4658   48.5052   73.8423 O   0  0  0  0  0  0  0  0  0  0  0  0
   96.8242   46.8368   75.1606 P   0  0  1  0  0  4  0  0  0  0  0  0
   94.2480   51.1458   71.4039 O   0  0  0  0  0  0  0  0  0  0  0  0
  100.1517   46.5271   74.9004 O   0  0  0  0  0  0  0  0  0  0  0  0
   94.3642   49.1326   71.7859 C   0  0  2  0  0  0  0  0  0  0  0  0
   93.1942   46.8121   72.6388 C   0  0  0  0  0  0  0  0  0  0  0  0
   97.4677   45.8632   75.9648 O   0  0  0  0  0  0  0  0  0  0  0  0
  3  1  1  0
  5  2  2  0
  5  4  1  0
 11  1  1  0
 12  3  1  0
 14  7  1  0
 15  2  1  0
 16  4  2  0
 16 13  1  0
 16 15  1  0
 18  7  1  0
 19  7  1  0
 20 11  1  0
 21 10  1  1
 21 17  1  0
 21 20  1  0
 22  3  1  0
 23  7  1  0
 24  3  1  0
 24  8  1  0
 24  9  1  1
 25  4  1  0
 25  6  2  3
 25  8  1  0
 26  7  1  0
 26 21  1  0
M  RAD  2  17   2  21   2
M  END
>  <ID>  (1) 
conformer_0

$$$$
