
     RDKit          3D

 26 26  0  0  0  0  0  0  0  0999 V2000
   90.3951   46.8759   70.6586 C   0  0  0  0  0  0  0  0  0  0  0  0
   93.8586   49.2111   71.5452 C   0  0  0  0  0  0  0  0  0  0  0  0
   94.1315   50.0115   72.3827 C   0  0  0  0  0  0  0  0  0  0  0  0
   93.3249   46.9111   72.5963 C   0  0  0  0  0  0  0  0  0  0  0  0
   89.8944   45.8997   71.0824 N   0  0  0  0  0  0  0  0  0  0  0  0
   93.3317   47.7296   71.9802 N   0  0  0  0  0  0  0  0  0  0  0  0
   99.2211   46.1591   76.1208 P   0  0  0  0  0  5  0  0  0  0  0  0
   95.4046   48.9688   71.3626 O   0  0  0  0  0  0  0  0  0  0  0  0
   92.8187   45.8652   73.0087 N   0  0  0  0  0  0  0  0  0  0  0  0
   95.3957   50.2366   73.0781 C   0  0  0  0  0  0  0  0  0  0  0  0
   90.3833   44.2682   72.8023 N   0  0  0  0  0  0  0  0  0  0  0  0
   95.3232   51.3945   74.1159 O   0  0  0  0  0  0  0  0  0  0  0  0
   96.0510   46.9819   76.0945 O   0  0  0  0  0  0  0  0  0  0  0  0
   98.8222   44.6556   76.0619 O   0  0  0  0  0  0  0  0  0  0  0  0
   96.5701   48.3090   73.8088 O   0  0  0  0  0  0  0  0  0  0  0  0
   91.0309   45.5822   72.2824 C   0  0  0  0  0  0  0  0  0  0  0  0
   98.4651   47.6449   75.5818 O   0  0  0  0  0  0  0  0  0  0  0  0
   92.9508   50.6710   71.1067 O   0  0  0  0  0  0  0  0  0  0  0  0
   91.3430   47.5824   70.5405 N   0  0  0  0  0  0  0  0  0  0  0  0
   96.9056   47.0890   75.0200 P   0  0  0  0  0  0  0  0  0  0  0  0
   96.7492   49.2894   72.8549 C   0  0  0  0  0  0  0  0  0  0  0  0
  100.4881   46.2794   75.5271 O   0  0  0  0  0  0  0  0  0  0  0  0
   92.1547   46.8451   71.7188 C   0  0  0  0  0  0  0  0  0  0  0  0
   99.2862   46.2652   77.3191 O   0  0  0  0  0  0  0  0  0  0  0  0
   93.2998   51.0061   73.3033 O   0  0  0  0  0  0  0  0  0  0  0  0
   97.4473   46.2678   74.3905 O   0  0  0  0  0  0  0  0  0  0  0  0
  3  2  1  0
  5  1  2  0
  6  2  1  0
  6  4  1  0
  8  2  1  0
  9  4  2  3
 10  3  2  3
 12 10  1  0
 14  7  1  0
 16  5  1  0
 16 11  1  0
 17  7  1  0
 18  2  1  0
 19  1  1  0
 20 13  1  0
 20 15  1  0
 21 10  1  0
 21 15  1  0
 22  7  1  0
 23  4  1  0
 23 16  2  0
 23 19  1  0
 24  7  1  0
 25  3  1  0
 26  7  1  0
 26 20  1  0
M  END
>  <ID>  (1) 
conformer_0

$$$$
