
     RDKit          3D

 25 25  0  0  0  0  0  0  0  0999 V2000
   90.3786   46.8239   70.6567 C   0  0  0  0  0  0  0  0  0  0  0  0
   94.4483   50.2093   72.4135 C   0  0  0  0  0  0  0  0  0  0  0  0
   97.0869   48.9598   73.2055 C   0  0  0  0  0  0  0  0  0  0  0  0
   93.4489   46.7876   72.8810 C   0  0  0  0  0  0  0  0  0  0  0  0
   91.5002   47.5621   70.6663 N   0  0  0  0  0  0  0  0  0  0  0  0
   98.9842   45.7468   75.8239 P   0  0  0  0  0  5  0  0  0  0  0  0
   95.8344   46.9965   76.0272 O   0  0  0  0  0  0  0  0  0  0  0  0
   94.0802   49.3721   71.9538 C   0  0  2  0  0  0  0  0  0  0  0  0
   92.9347   45.8295   72.9122 N   0  0  0  0  0  0  0  0  0  0  0  0
   98.9534   44.3989   75.6289 O   0  0  0  0  0  0  0  0  0  0  0  0
   97.8889   46.9649   76.0718 O   0  0  0  0  0  0  0  0  0  0  0  0
   93.4318   47.6587   72.2632 N   0  0  0  0  0  0  0  0  0  0  0  0
   95.3397   51.5587   72.0462 O   0  0  0  0  0  0  0  0  0  0  0  0
   91.0970   45.5333   72.2735 C   0  0  0  0  0  0  0  0  0  0  0  0
   96.7934   48.3607   74.2196 O   0  0  0  0  0  0  0  0  0  0  0  0
   90.3288   44.4453   72.8216 N   0  0  0  0  0  0  0  0  0  0  0  0
   89.9928   45.9891   71.1251 N   0  0  0  0  0  0  0  0  0  0  0  0
   99.5945   46.2617   76.9407 O   0  0  0  0  0  0  0  0  0  0  0  0
   95.4353   48.6783   72.1489 O   0  0  0  0  0  0  0  0  0  0  0  0
   96.0770   49.9845   72.7752 C   0  0  1  0  0  0  0  0  0  0  0  0
   96.8370   46.9062   75.1969 P   0  0  0  0  0  0  0  0  0  0  0  0
   93.0786   51.0047   71.5948 O   0  0  0  0  0  0  0  0  0  0  0  0
   92.1979   46.8042   71.7966 C   0  0  0  0  0  0  0  0  0  0  0  0
   99.3530   46.2030   74.5255 O   0  0  0  0  0  0  0  0  0  0  0  0
   96.9889   45.8797   74.2970 O   0  0  0  0  0  0  0  0  0  0  0  0
  5  1  1  0
  8  2  1  0
  9  4  2  3
 10  6  1  0
 11  6  1  0
 12  4  1  0
  8 12  1  1
 13  2  1  0
 15  3  1  0
 16 14  1  0
 17  1  2  3
 17 14  1  0
 18  6  1  0
 19  8  1  0
 20  2  1  0
 20  3  1  1
 20 19  1  0
 21  7  1  0
 21 11  1  0
 21 15  1  0
 22  2  1  0
 23  5  2  3
 23 12  1  0
 24  6  1  0
 25  6  1  0
M  END
>  <ID>  (1) 
conformer_0

$$$$
