
     RDKit          3D

 22 25  0  0  0  0  0  0  0  0999 V2000
   94.3899   50.1451   72.4971 C   0  0  0  0  0  0  0  0  0  0  0  0
   90.5290   47.2792   70.6571 C   0  0  0  0  0  0  0  0  0  0  0  0
   94.3426   49.2406   71.8492 C   0  0  0  0  0  0  0  0  0  0  0  0
   93.4559   46.7787   72.7558 C   0  0  0  0  0  0  0  0  0  0  0  0
   91.6586   48.0427   70.7626 N   0  0  0  0  0  0  0  0  0  0  0  0
   92.9124   45.7094   72.8462 N   0  0  0  0  0  0  0  0  0  0  0  0
   95.9818   47.1332   76.0672 O   0  0  0  0  0  0  0  0  0  0  0  0
   93.5053   47.7511   72.1185 N   0  0  0  0  0  0  0  0  0  0  0  0
   99.1438   45.8742   75.8981 P   0  0  0  0  0  0  0  0  0  0  0  0
   95.7668   48.5784   72.1118 O   0  0  0  0  0  0  0  0  0  0  0  0
   95.9048   50.1805   73.1848 C   0  0  0  0  0  0  0  0  0  0  0  0
   90.0607   46.2136   71.0401 N   0  0  0  0  0  0  0  0  0  0  0  0
   99.7175   46.2778   76.6580 O   0  0  0  0  0  0  0  0  0  0  0  0
   90.6429   44.3104   72.4824 N   0  0  0  0  0  0  0  0  0  0  0  0
   97.6381   47.8259   74.6436 O   0  0  0  0  0  0  0  0  0  0  0  0
   94.2499   51.1275   71.3643 O   0  0  0  0  0  0  0  0  0  0  0  0
   91.2687   45.7515   72.0493 C   0  0  0  0  0  0  0  0  0  0  0  0
   97.8915   45.5210   75.5156 O   0  0  0  0  0  0  0  0  0  0  0  0
   95.0606   51.4936   73.7343 O   0  0  0  0  0  0  0  0  0  0  0  0
   97.1471   47.2608   75.1201 P   0  0  0  0  0  0  0  0  0  0  0  0
   96.9471   48.9825   73.0769 C   0  0  0  0  0  0  0  0  0  0  0  0
   92.3384   47.0359   71.7103 C   0  0  0  0  0  0  0  0  0  0  0  0
  3  1  1  0
  5  2  2  0
  6  4  1  0
  8  3  1  0
  8  4  1  0
 10  3  1  0
 11  1  1  0
 12  2  1  0
 13  9  1  0
 16  1  1  0
 17  6  1  0
 17 12  1  0
 17 14  1  0
 18  9  1  0
 19 11  1  0
 20  7  1  0
 20 15  1  0
 20 18  1  0
 21 10  1  0
 21 11  1  0
 21 15  1  0
 22  4  1  0
 22  5  1  0
 22  8  1  0
 22 17  1  0
M  END
>  <ID>  (1) 
conformer_0

$$$$
