
     RDKit          3D

 24 25  0  0  0  0  0  0  0  0999 V2000
   94.0220   49.3322   71.8366 C   0  0  0  0  0  0  0  0  0  0  0  0
   90.4105   47.0086   71.0893 C   0  0  0  0  0  0  0  0  0  0  0  0
   94.5002   50.1434   72.5086 C   0  0  1  0  0  0  0  0  0  0  0  0
   93.6086   46.7308   72.5889 C   0  0  0  0  0  0  0  0  0  0  0  0
   93.0786   45.6993   72.8218 N   0  0  0  0  0  0  0  0  0  0  0  0
   91.2710   47.8829   70.9357 N   0  0  0  0  0  0  0  0  0  0  0  0
   93.4520   47.8160   72.0968 N   0  0  0  0  0  0  0  0  0  0  0  0
   95.4987   48.5782   71.7111 O   0  0  0  0  0  0  0  0  0  0  0  0
   97.1592   46.8761   75.1501 P   0  0  0  0  0  0  0  0  0  0  0  0
   96.0059   49.9484   72.8902 C   0  0  1  0  0  0  0  0  0  0  0  0
   90.2498   44.5171   72.7892 N   0  0  0  0  0  0  0  0  0  0  0  0
   96.8333   47.4492   74.0102 O   0  0  0  0  0  0  0  0  0  0  0  0
   96.5928   46.4512   76.0835 O   0  0  0  0  0  0  0  0  0  0  0  0
   93.0001   50.8063   71.4592 O   0  0  0  0  0  0  0  0  0  0  0  0
   95.5711   51.3951   73.7923 O   0  0  0  0  0  0  0  0  0  0  0  0
   92.2334   47.1153   71.8863 C   0  0  2  0  0  0  0  0  0  0  0  0
   98.5374   46.9371   74.9722 O   0  0  0  0  0  0  0  0  0  0  0  0
   99.0739   45.5462   76.7035 O   0  0  0  0  0  0  0  0  0  0  0  0
   89.9237   46.1602   71.3429 N   0  0  0  0  0  0  0  0  0  0  0  0
   91.1563   45.7987   72.3171 C   0  0  0  0  0  3  0  0  0  0  0  0
   95.1001   51.3629   71.5843 O   0  0  0  0  0  0  0  0  0  0  0  0
   97.0129   48.8780   72.9697 C   0  0  0  0  0  0  0  0  0  0  0  0
   99.4682   46.3976   76.0249 P   0  0  1  0  0  4  0  0  0  0  0  0
  100.6361   46.3339   75.6631 O   0  0  0  0  0  1  0  0  0  0  0  0
  3  1  1  0
  5  4  2  3
  6  2  2  0
  7  1  1  0
  7  4  1  0
  8  1  1  0
 10  3  1  0
 12  9  1  0
 13  9  1  0
 14  1  1  0
 10 15  1  1
 16  4  1  0
 16  6  1  0
 16  7  1  0
 17  9  1  0
 19  2  1  0
 20 11  1  0
 16 20  1  1
 20 19  1  0
  3 21  1  6
 22 10  1  0
 22 12  1  0
 23 17  1  0
 23 18  1  6
 24 23  1  0
M  RAD  3  20   2  23   2  24   2
M  END
>  <ID>  (1) 
conformer_0

$$$$
