
     RDKit          3D

 25 25  0  0  0  0  0  0  0  0999 V2000
   95.6625   50.3761   73.2526 C   0  0  0  0  0  0  0  0  0  0  0  0
   91.1187   45.6684   72.1640 C   0  0  0  0  0  0  0  0  0  0  0  0
   94.2704   49.9364   72.2110 C   0  0  0  0  0  0  0  0  0  0  0  0
   92.0844   46.9095   71.6017 C   0  0  0  0  0  0  0  0  0  0  0  0
   89.7685   45.9677   71.1536 N   0  0  0  0  0  0  0  0  0  0  0  0
   92.9295   45.7625   72.8283 N   0  0  0  0  0  0  0  0  0  0  0  0
   93.5913   47.7390   72.0057 N   0  0  0  0  0  0  0  0  0  0  0  0
   97.0420   47.3889   75.2443 P   0  0  0  0  0  0  0  0  0  0  0  0
   94.1477   49.3733   71.5730 C   0  0  2  0  0  0  0  0  0  0  0  0
   96.2229   46.8050   76.2384 O   0  0  0  0  0  0  0  0  0  0  0  0
   96.5685   48.6821   74.2962 O   0  0  0  0  0  0  0  0  0  0  0  0
   99.7398   47.0014   77.0752 O   0  0  0  0  0  0  0  0  0  0  0  0
   90.4407   44.3510   72.7229 N   0  0  0  0  0  0  0  0  0  0  0  0
  100.3490   45.8735   75.2065 O   0  0  0  0  0  0  0  0  0  0  0  0
   90.1757   46.9671   70.6140 C   0  0  0  0  0  0  0  0  0  0  0  0
   95.6761   49.5860   71.6311 O   0  0  0  0  0  0  0  0  0  0  0  0
   93.2705   50.7182   71.1477 O   0  0  0  0  0  0  0  0  0  0  0  0
   91.1917   47.4913   70.5731 N   0  0  0  0  0  0  0  0  0  0  0  0
   99.4767   45.9963   76.0651 P   0  0  0  0  0  5  0  0  0  0  0  0
   97.5719   46.1476   74.3828 O   0  0  0  0  0  0  0  0  0  0  0  0
   96.8093   49.3849   73.1458 C   0  0  0  0  0  0  0  0  0  0  0  0
   93.7604   51.1144   73.3349 O   0  0  0  0  0  0  0  0  0  0  0  0
   93.4890   46.7812   72.5060 C   0  0  0  0  0  0  0  0  0  0  0  0
   98.9531   45.0996   76.8008 O   0  0  0  0  0  0  0  0  0  0  0  0
   98.1793   47.9851   75.5286 O   0  0  0  0  0  0  0  0  0  0  0  0
  4  2  2  0
  5  2  1  0
  9  1  1  0
  9  3  1  0
  9  7  1  0
 10  8  1  0
 11  8  1  0
 13  2  1  0
 15  5  1  0
  9 16  1  6
 17  3  1  0
 18  4  1  0
 18 15  2  0
 19 12  1  0
 19 14  1  0
 20 19  1  0
 21  1  1  0
 21 11  1  0
 22  3  1  0
 23  4  1  0
 23  6  2  3
 23  7  1  0
 24 19  1  0
 25  8  1  0
 25 19  1  0
M  END
>  <ID>  (1) 
conformer_0

$$$$
