
     RDKit          3D

 24 25  0  0  0  0  0  0  0  0999 V2000
   90.5228   46.8067   70.6798 C   0  0  0  0  0  0  0  0  0  0  0  0
   94.1898   49.3848   71.8868 C   0  0  2  0  0  0  0  0  0  0  0  0
   94.3350   50.3733   72.3800 C   0  0  0  0  0  0  0  0  0  0  0  0
   92.1953   46.8068   71.7485 C   0  0  0  0  0  0  0  0  0  0  0  0
   89.9136   45.9252   71.0899 N   0  0  0  0  0  0  0  0  0  0  0  0
   92.9342   45.7594   72.9169 N   0  0  0  0  0  0  0  0  0  0  0  0
   93.6190   47.7668   72.1918 N   0  0  0  0  0  0  0  0  0  0  0  0
   99.4698   46.2763   76.1191 P   0  0  0  0  0  4  0  0  0  0  0  0
  100.0288   47.0843   76.1117 O   0  0  0  0  0  1  0  0  0  0  0  0
   95.6941   50.4546   72.9330 C   0  0  1  0  0  0  0  0  0  0  0  0
   98.2809   46.8142   74.6933 O   0  0  0  0  0  0  0  0  0  0  0  0
   91.0555   45.5703   72.2867 C   0  0  0  0  0  0  0  0  0  0  0  0
   90.2779   44.4049   72.8901 N   0  0  0  0  0  0  0  0  0  0  0  0
   96.6003   46.4687   76.0863 O   0  0  0  0  0  0  0  0  0  0  0  0
   95.4660   48.8467   71.8793 O   0  0  0  0  0  0  0  0  0  0  0  0
   95.8441   51.6428   73.6851 O   0  0  0  0  0  0  0  0  0  0  0  0
   93.2685   50.9057   71.1488 O   0  0  0  0  0  0  0  0  0  0  0  0
   91.6799   47.6196   70.6305 N   0  0  0  0  0  0  0  0  0  0  0  0
   99.2505   45.2280   76.5999 O   0  0  0  0  0  0  0  0  0  0  0  0
   97.0941   46.9206   75.0410 P   0  0  0  0  0  0  0  0  0  0  0  0
   96.6980   49.2187   73.1757 C   0  0  2  0  0  0  0  0  0  0  0  0
   93.4099   46.8651   72.6558 C   0  0  0  0  0  0  0  0  0  0  0  0
   96.5006   48.0685   74.0489 O   0  0  0  0  0  0  0  0  0  0  0  0
   93.4282   51.1944   73.2505 O   0  0  0  0  0  0  0  0  0  0  0  0
  3  2  1  0
  5  1  2  0
  2  7  1  1
  9  8  1  0
 10  3  1  0
 11  8  1  0
 12  4  2  0
 12  5  1  0
 13 12  1  0
 15  2  1  0
 10 16  1  1
 17  3  1  0
 18  1  1  0
 18  4  1  0
 19  8  1  0
 20 11  1  0
 20 14  1  0
 21 10  1  0
 21 15  1  0
 22  4  1  0
 22  6  2  3
 22  7  1  0
 23 20  1  0
 21 23  1  1
 24  3  1  0
M  RAD  2   8   2   9   2
M  END
>  <ID>  (1) 
conformer_0

$$$$
