
     RDKit          3D

 25 27  0  0  0  0  0  0  0  0999 V2000
   90.4760   47.2523   70.5931 C   0  0  0  0  0  0  0  0  0  0  0  0
   94.7938   50.2148   72.6553 C   0  0  0  0  0  0  0  0  0  0  0  0
   94.2024   49.4944   72.0519 C   0  0  0  0  0  0  0  0  0  0  0  0
   92.1106   46.0837   72.2695 C   0  0  0  0  0  0  0  0  0  0  0  0
   91.5327   47.9575   70.8777 N   0  0  0  0  0  0  0  0  0  0  0  0
   92.8648   45.7509   73.0162 N   0  0  0  0  0  0  0  0  0  0  0  0
   96.2256   49.9958   73.2405 C   0  0  0  0  0  0  0  0  0  0  0  0
   98.5344   47.0911   75.4865 P   0  0  0  0  0  5  0  0  0  0  0  0
   95.8135   48.7213   72.0724 O   0  0  0  0  0  0  0  0  0  0  0  0
   99.4631   46.8310   74.7655 O   0  0  0  0  0  0  0  0  0  0  0  0
   93.3550   48.0738   72.1885 N   0  0  0  0  0  0  0  0  0  0  0  0
   94.1878   51.2535   71.5187 O   0  0  0  0  0  0  0  0  0  0  0  0
   90.7211   45.6131   72.1746 C   0  0  0  0  0  0  0  0  0  0  0  0
   90.3567   44.3242   72.7106 N   0  0  0  0  0  0  0  0  0  0  0  0
   99.3510   46.6662   76.9253 O   0  0  0  0  0  0  0  0  0  0  0  0
   96.3167   47.1065   76.3093 O   0  0  0  0  0  0  0  0  0  0  0  0
   90.0545   46.0668   70.9946 N   0  0  0  0  0  0  0  0  0  0  0  0
   98.9096   49.2532   76.1721 O   0  0  0  0  0  0  0  0  0  0  0  0
   94.9840   51.4952   73.6580 O   0  0  0  0  0  0  0  0  0  0  0  0
   98.6422   44.9210   75.5526 O   0  0  0  0  0  0  0  0  0  0  0  0
   97.5612   48.2826   74.6675 O   0  0  0  0  0  0  0  0  0  0  0  0
   97.3030   48.9367   73.0839 C   0  0  0  0  0  0  0  0  0  0  0  0
   97.1408   45.8170   74.5042 O   0  0  0  0  0  0  0  0  0  0  0  0
   93.6535   47.0628   73.1483 C   0  0  0  0  0  0  0  0  0  0  0  0
   92.2590   47.6595   71.6490 C   0  0  0  0  0  0  0  0  0  0  0  0
  3  2  1  0
  5  1  2  0
  6  4  1  0
  7  2  1  0
  9  3  1  0
  9  7  1  0
 10  8  1  0
 11  3  1  0
 12  2  1  0
 13  4  1  0
 14 13  1  0
 15  8  1  0
 16  8  1  0
 17  1  1  0
 17 13  2  0
 19  2  1  0
 20  8  1  0
 21  8  1  0
 22  7  1  0
 22 18  1  0
 22 21  1  0
 23 10  1  0
 24  6  2  0
 24 11  1  0
 25  4  2  0
 25  5  1  0
 25 11  1  0
M  END
>  <ID>  (1) 
conformer_0

$$$$
