
     RDKit          3D

 25 26  0  0  0  0  0  0  0  0999 V2000
   90.5922   47.2146   70.3472 C   0  0  0  0  0  0  0  0  0  0  0  0
   95.7972   50.2697   73.2826 C   0  0  0  0  0  0  0  0  0  0  0  0
   94.4205   50.3050   72.7091 C   0  0  0  0  0  0  0  0  0  0  0  0
   92.0689   47.1150   71.4847 C   0  0  1  0  0  0  0  0  0  0  0  0
   91.5723   47.8804   70.5816 N   0  0  0  0  0  0  0  0  0  0  0  0
   92.8683   45.9497   72.9028 N   0  0  0  0  0  0  0  0  0  0  0  0
   97.1072   49.1235   72.9825 C   0  0  0  0  0  0  0  0  0  0  0  0
   99.4330   46.0995   75.9917 P   0  0  0  0  0  5  0  0  0  0  0  0
   95.5878   49.0094   71.6689 O   0  0  0  0  0  0  0  0  0  0  0  0
   93.4805   48.0361   71.9622 N   0  0  0  0  0  0  0  0  0  0  0  0
   95.7521   47.1642   76.1885 O   0  0  0  0  0  0  0  0  0  0  0  0
   90.0460   46.1354   70.8360 N   0  0  0  0  0  0  0  0  0  0  0  0
   91.0600   45.7316   72.0608 C   0  0  0  0  0  3  0  0  0  0  0  0
   90.1081   44.7484   72.6870 N   0  0  0  0  0  0  0  0  0  0  0  0
   99.8017   46.3196   77.1548 O   0  0  0  0  0  0  0  0  0  0  0  0
   96.7361   48.2192   73.9852 O   0  0  0  0  0  0  0  0  0  0  0  0
   93.7089   51.3330   71.7195 O   0  0  0  0  0  0  0  0  0  0  0  0
   98.2379   47.3517   75.7210 O   0  0  0  0  0  0  0  0  0  0  0  0
   96.7250   46.9905   75.1428 P   0  0  0  0  0  0  0  0  0  0  0  0
   94.6654   51.4650   73.9716 O   0  0  0  0  0  0  0  0  0  0  0  0
   99.2986   44.6074   75.8170 O   0  0  0  0  0  0  0  0  0  0  0  0
  100.2609   46.4148   74.9313 O   0  0  0  0  0  0  0  0  0  0  0  0
   94.2083   49.4253   71.9076 C   0  0  1  0  0  0  0  0  0  0  0  0
   93.1733   46.8484   72.5175 C   0  0  0  0  0  0  0  0  0  0  0  0
   96.9935   45.8498   74.9555 O   0  0  0  0  0  0  0  0  0  0  0  0
  3  2  1  0
  5  1  2  0
  5  4  1  0
  7  2  1  0
 10  4  1  0
 12  1  1  0
  4 13  1  1
 13 12  1  0
 14 13  1  0
 15  8  1  0
 16  7  1  0
 17  3  1  0
 18  8  1  0
 19 11  1  0
 19 16  1  0
 20  3  1  0
 21  8  1  0
 22  8  1  0
 23  3  1  0
 23  9  1  1
 23 10  1  0
 24  4  1  0
 24  6  2  3
 24 10  1  0
 25  8  1  0
 25 19  1  0
M  RAD  1  13   2
M  END
>  <ID>  (1) 
conformer_0

$$$$
