
     RDKit          3D

 26 27  0  0  0  0  0  0  0  0999 V2000
   90.7385   46.5532   70.4345 C   0  0  0  0  0  0  0  0  0  0  0  0
   94.2211   50.1422   72.3175 C   0  0  2  0  0  0  0  0  0  0  0  0
   95.5144   50.4512   73.1890 C   0  0  2  0  0  0  0  0  0  0  0  0
   92.2299   46.7927   71.8940 C   0  0  0  0  0  0  0  0  0  0  0  0
   91.6422   47.2623   70.5547 N   0  0  0  0  0  0  0  0  0  0  0  0
   97.0277   47.1774   74.8539 P   0  0  0  0  0  5  0  0  0  0  0  0
   95.9970   46.9479   76.1694 O   0  0  0  0  0  0  0  0  0  0  0  0
   93.4966   47.7513   72.3084 N   0  0  0  0  0  0  0  0  0  0  0  0
   92.7163   45.9026   73.2947 N   0  0  0  0  0  0  0  0  0  0  0  0
   98.3591   46.7711   74.7225 O   0  0  0  0  0  0  0  0  0  0  0  0
   90.2029   44.4590   72.8238 N   0  0  0  0  0  0  0  0  0  0  0  0
   91.0520   45.5961   72.3454 C   0  0  0  0  0  0  0  0  0  0  0  0
   95.4501   48.8950   71.5965 O   0  0  0  0  0  0  0  0  0  0  0  0
   98.6980   44.8061   75.6716 O   0  0  0  0  0  0  0  0  0  0  0  0
   94.1075   49.1776   71.7627 C   0  0  2  0  0  0  0  0  0  0  0  0
   96.5352   48.5015   73.8351 O   0  0  0  0  0  0  0  0  0  0  0  0
   93.3883   50.8722   71.5957 O   0  0  0  0  0  0  0  0  0  0  0  0
   90.1016   45.7893   70.9526 N   0  0  0  0  0  0  0  0  0  0  0  0
   96.3112   46.0603   73.8326 O   0  0  0  0  0  0  0  0  0  0  0  0
   99.3286   46.3582   75.9804 P   0  0  0  0  0  4  0  0  0  0  0  0
   94.7997   51.5675   73.3407 O   0  0  0  0  0  0  0  0  0  0  0  0
   93.3546   46.8707   73.0046 C   0  0  0  0  0  0  0  0  0  0  0  0
   99.2936   46.2491   77.0492 O   0  0  0  0  0  0  0  0  0  0  0  0
  100.4939   46.6501   75.5972 O   0  0  0  0  0  1  0  0  0  0  0  0
   96.5145   49.4473   72.8640 C   0  0  2  0  0  0  0  0  0  0  0  0
   98.0352   48.7083   75.7141 O   0  0  0  0  0  0  0  0  0  0  0  0
  3  2  1  0
  5  1  2  0
  5  4  1  0
  7  6  1  0
 10  6  1  0
 12  4  2  0
 12 11  1  0
 15  2  1  0
 15  8  1  1
 15 13  1  0
 16  6  1  0
  2 17  1  6
 18  1  1  0
 18 12  1  0
 19  6  1  0
 20 10  1  0
 20 14  1  0
  3 21  1  6
 22  4  1  0
 22  8  1  0
 22  9  2  3
 23 20  1  0
 24 20  1  0
 25  3  1  0
 25 13  1  0
 25 16  1  1
 26  6  1  0
M  RAD  2  20   2  24   2
M  END
>  <ID>  (1) 
conformer_0

$$$$
