
     RDKit          3D

 25 25  0  0  0  0  0  0  0  0999 V2000
   96.9220   49.2116   73.2367 C   0  0  0  0  0  0  0  0  0  0  0  0
   90.4880   46.7041   70.7745 C   0  0  0  0  0  0  0  0  0  0  0  0
   95.7634   50.3015   73.1303 C   0  0  2  0  0  0  0  0  0  0  0  0
   92.2604   46.8091   71.9307 C   0  0  0  0  0  0  0  0  0  0  0  0
   91.4825   47.4778   70.7151 N   0  0  0  0  0  0  0  0  0  0  0  0
   95.3339   49.1289   71.7020 O   0  0  0  0  0  0  0  0  0  0  0  0
   94.4324   50.1538   72.6029 C   0  0  1  0  0  0  0  0  0  0  0  0
   92.9667   45.8090   73.2721 N   0  0  0  0  0  0  0  0  0  0  0  0
   96.2984   46.7681   76.1649 O   0  0  0  0  0  0  0  0  0  0  0  0
   99.5953   45.9945   75.6910 P   0  0  0  0  0  4  0  0  0  0  0  0
   99.5923   46.7355   76.7696 O   0  0  0  0  0  0  0  0  0  0  0  0
   93.4481   47.6826   72.3107 N   0  0  0  0  0  0  0  0  0  0  0  0
   90.1504   44.4831   73.0900 N   0  0  0  0  0  0  0  0  0  0  0  0
   91.1272   45.6564   72.4912 C   0  0  0  0  0  0  0  0  0  0  0  0
   96.9053   48.4195   74.3143 O   0  0  0  0  0  0  0  0  0  0  0  0
   99.0077   44.5789   75.6017 O   0  0  0  0  0  0  0  0  0  0  0  0
   90.0073   45.9485   71.3626 N   0  0  0  0  0  0  0  0  0  0  0  0
   98.7163   46.7376   74.6501 O   0  0  0  0  0  0  0  0  0  0  0  0
   93.2443   51.0419   72.0549 O   0  0  0  0  0  0  0  0  0  0  0  0
   97.0274   46.9934   75.0144 P   0  0  1  0  0  4  0  0  0  0  0  0
   93.8084   49.4411   71.9271 C   0  0  2  0  0  0  0  0  0  0  0  0
  100.8365   45.6957   75.2950 O   0  0  0  0  0  1  0  0  0  0  0  0
   96.5164   46.1424   73.9217 O   0  0  0  0  0  1  0  0  0  0  0  0
   93.5496   46.7874   72.9773 C   0  0  0  0  0  0  0  0  0  0  0  0
   95.2577   51.8382   72.5872 O   0  0  0  0  0  0  0  0  0  0  0  0
  3  1  1  0
  5  2  2  0
  5  4  1  0
  7  3  1  0
 11 10  1  0
 12  4  1  0
 14  4  2  0
 14 13  1  0
 15  1  1  0
 16 10  1  0
 17  2  1  0
 17 14  1  0
 18 10  1  0
  7 19  1  6
 20  9  1  1
 20 15  1  0
 20 18  1  0
 21  6  1  6
 21  7  1  0
 21 12  1  0
 22 10  1  0
 23 20  1  0
 24  8  2  3
 24 12  1  0
  3 25  1  6
M  RAD  4  10   2  20   2  22   2  23   2
M  END
>  <ID>  (1) 
conformer_0

$$$$
