
     RDKit          3D

 25 28  0  0  0  0  0  0  0  0999 V2000
   94.0891   49.3443   71.7809 C   0  0  0  0  0  0  0  0  0  0  0  0
   92.5688   46.9100   71.9423 C   0  0  0  0  0  0  0  0  0  0  0  0
   94.3494   50.0847   72.2185 C   0  0  0  0  0  0  0  0  0  0  0  0
   93.9156   46.9052   73.0050 C   0  0  0  0  0  0  0  0  0  0  0  0
   90.2839   45.7148   71.3460 N   0  0  0  0  0  0  0  0  0  0  0  0
   93.7346   47.7365   72.3295 N   0  0  0  0  0  0  0  0  0  0  0  0
   98.8907   46.2571   75.9747 P   0  0  0  0  0  5  0  0  0  0  0  0
   95.6797   48.9370   71.5207 O   0  0  0  0  0  0  0  0  0  0  0  0
   93.2665   45.7753   73.0566 N   0  0  0  0  0  0  0  0  0  0  0  0
   95.9609   50.0126   72.7428 C   0  0  0  0  0  0  0  0  0  0  0  0
   95.9131   47.0886   76.1692 O   0  0  0  0  0  0  0  0  0  0  0  0
   90.9795   44.0811   72.8222 N   0  0  0  0  0  0  0  0  0  0  0  0
   97.7123   48.1900   75.6483 O   0  0  0  0  0  0  0  0  0  0  0  0
   98.4008   44.7089   75.5213 O   0  0  0  0  0  0  0  0  0  0  0  0
   90.6397   46.7189   70.7815 C   0  0  0  0  0  0  0  0  0  0  0  0
   92.9841   50.8822   71.5208 O   0  0  0  0  0  0  0  0  0  0  0  0
   99.2568   46.4393   77.0236 O   0  0  0  0  0  0  0  0  0  0  0  0
   91.6042   47.4285   70.8800 N   0  0  0  0  0  0  0  0  0  0  0  0
   96.1081   48.6658   73.6818 O   0  0  0  0  0  0  0  0  0  0  0  0
   97.2401   49.3039   73.3769 C   0  0  0  0  0  0  0  0  0  0  0  0
   91.5984   45.5537   72.2800 C   0  0  0  0  0  0  0  0  0  0  0  0
   95.0387   51.5837   71.9725 O   0  0  0  0  0  0  0  0  0  0  0  0
   97.2009   46.4148   74.3876 O   0  0  0  0  0  0  0  0  0  0  0  0
   96.8936   47.3283   75.2851 P   0  0  0  0  0  0  0  0  0  0  0  0
   99.4288   46.9009   75.3345 O   0  0  0  0  0  0  0  0  0  0  0  0
  3  1  1  0
  6  1  1  0
  6  2  1  0
  6  4  1  0
  8  1  1  0
  9  4  2  0
 10  3  1  0
 10  8  1  0
 13  7  1  0
 14  7  1  0
 15  5  2  0
 16  3  1  0
 17  7  1  0
 18  2  2  0
 18 15  1  0
 19 10  1  0
 20 10  1  0
 20 19  1  0
 21  2  1  0
 21  5  1  0
 21  9  1  0
 21 12  1  0
 22  3  1  0
 23  7  1  0
 24 11  1  0
 24 13  1  0
 24 20  1  0
 25  7  1  0
M  END
>  <ID>  (1) 
conformer_0

$$$$
