
     RDKit          3D

 24 26  0  0  0  0  0  0  0  0999 V2000
   90.6119   46.9975   70.5130 C   0  0  0  0  0  0  0  0  0  0  0  0
   94.1789   50.3255   72.2969 C   0  0  0  0  0  0  0  0  0  0  0  0
   97.1113   48.7658   73.4997 C   0  0  0  0  0  0  0  0  0  0  0  0
   89.9859   45.9540   70.9898 N   0  0  0  0  0  0  0  0  0  0  0  0
   93.3611   46.8393   72.7487 C   0  0  0  0  0  0  0  0  0  0  0  0
   92.7650   45.8322   73.1301 N   0  0  0  0  0  0  0  0  0  0  0  0
   99.6040   46.0731   76.1643 P   0  0  0  0  0  4  0  0  0  0  0  0
   95.6340   48.7346   72.3187 O   0  0  0  0  0  0  0  0  0  0  0  0
   90.3060   44.4793   72.9726 N   0  0  0  0  0  0  0  0  0  0  0  0
   94.2275   49.3788   71.8222 C   0  0  0  0  0  0  0  0  0  0  0  0
   91.5360   47.6555   70.6039 N   0  0  0  0  0  0  0  0  0  0  0  0
   96.2445   46.6329   76.1287 O   0  0  0  0  0  0  0  0  0  0  0  0
   98.4365   46.9059   75.1066 O   0  0  0  0  0  0  0  0  0  0  0  0
   93.5893   47.6746   72.1911 N   0  0  0  0  0  0  0  0  0  0  0  0
   99.1073   44.6487   75.7234 O   0  0  0  0  0  0  0  0  0  0  0  0
  100.9008   46.3252   75.6601 O   0  0  0  0  0  1  0  0  0  0  0  0
   93.5924   51.1090   70.9991 O   0  0  0  0  0  0  0  0  0  0  0  0
   91.1258   45.7117   72.2574 C   0  0  0  0  0  0  0  0  0  0  0  0
   97.0752   46.7156   75.1089 P   0  0  0  0  0  0  0  0  0  0  0  0
   99.4211   46.3663   77.2133 O   0  0  0  0  0  0  0  0  0  0  0  0
   95.8393   50.0076   73.1672 C   0  0  0  0  0  0  0  0  0  0  0  0
   93.5469   50.9657   73.5070 O   0  0  0  0  0  0  0  0  0  0  0  0
   92.2582   46.9397   71.7153 C   0  0  0  0  0  3  0  0  0  0  0  0
   96.6636   47.1003   74.0475 O   0  0  0  0  0  0  0  0  0  0  0  0
  4  1  2  0
  6  5  2  0
 10  2  1  0
 10  8  1  0
 11  1  1  0
 13  7  1  0
 14  5  1  0
 14 10  1  0
 15  7  1  0
 16  7  1  0
 17  2  1  0
 18  4  1  0
 18  6  1  0
 18  9  1  0
 19 12  1  0
 19 13  1  0
 20  7  1  0
 21  2  1  0
 21  3  1  0
 21  8  1  0
 22  2  1  0
 23  5  1  0
 23 11  1  0
 23 18  1  0
 24  3  1  0
 24 19  1  0
M  RAD  3   7   2  16   2  23   2
M  END
>  <ID>  (1) 
conformer_0

$$$$
