
     RDKit          3D

 25 27  0  0  0  0  0  0  0  0999 V2000
   90.3862   46.8485   70.9330 C   0  0  0  0  0  0  0  0  0  0  0  0
   94.1526   50.2675   72.3558 C   0  0  0  0  0  0  0  0  0  0  0  0
   95.7436   50.2323   72.8524 C   0  0  0  0  0  0  0  0  0  0  0  0
   89.8940   45.7771   71.1533 N   0  0  0  0  0  0  0  0  0  0  0  0
   93.2117   46.9588   72.7828 C   0  0  0  0  0  0  0  0  0  0  0  0
   99.5481   46.1964   75.9929 P   0  0  0  0  0  4  0  0  0  0  0  0
   96.0288   47.1682   76.0321 O   0  0  0  0  0  0  0  0  0  0  0  0
   96.9301   49.1293   73.0280 C   0  0  0  0  0  0  0  0  0  0  0  0
   93.4705   47.7330   72.3523 N   0  0  0  0  0  0  0  0  0  0  0  0
   90.3958   44.2435   72.7908 N   0  0  0  0  0  0  0  0  0  0  0  0
  100.0024   46.6396   76.9081 O   0  0  0  0  0  0  0  0  0  0  0  0
   98.3503   47.0522   75.2130 O   0  0  0  0  0  0  0  0  0  0  0  0
   92.7600   45.8930   72.9698 N   0  0  0  0  0  0  0  0  0  0  0  0
   95.4539   48.6950   71.9577 O   0  0  0  0  0  0  0  0  0  0  0  0
   91.3083   47.5793   70.8918 N   0  0  0  0  0  0  0  0  0  0  0  0
   96.8407   47.1042   74.9788 P   0  0  0  0  0  4  0  0  0  0  0  0
  100.6781   45.8259   75.1404 O   0  0  0  0  0  1  0  0  0  0  0  0
   91.0163   45.4415   72.3606 C   0  0  0  0  0  0  0  0  0  0  0  0
   93.0350   50.8453   71.4015 O   0  0  0  0  0  0  0  0  0  0  0  0
   96.0930   46.0419   73.9600 O   0  0  0  0  0  1  0  0  0  0  0  0
   98.8140   44.8243   76.0228 O   0  0  0  0  0  0  0  0  0  0  0  0
   95.1737   51.5325   72.3369 O   0  0  0  0  0  0  0  0  0  0  0  0
   94.1326   49.3079   71.9527 C   0  0  0  0  0  0  0  0  0  0  0  0
   96.7753   48.3008   74.0208 O   0  0  0  0  0  0  0  0  0  0  0  0
   92.0795   46.7876   71.8254 C   0  0  0  0  0  3  0  0  0  0  0  0
  3  2  1  0
  4  1  2  0
  8  3  1  0
  9  5  1  0
 11  6  1  0
 12  6  1  0
 13  5  2  0
 14  3  1  0
 15  1  1  0
 16  7  1  0
 16 12  1  0
 17  6  1  0
 18  4  1  0
 18 10  1  0
 18 13  1  0
 19  2  1  0
 20 16  1  0
 21  6  1  0
 22  3  1  0
 23  2  1  0
 23  9  1  0
 23 14  1  0
 24  8  1  0
 24 16  1  0
 25  5  1  0
 25 15  1  0
 25 18  1  0
M  RAD  5   6   2  16   2  17   2  20   2  25   2
M  END
>  <ID>  (1) 
conformer_0

$$$$
