
     RDKit          3D

 27 27  0  0  0  0  0  0  0  0999 V2000
   90.2283   47.1077   70.4696 C   0  0  0  0  0  0  0  0  0  0  0  0
   94.1092   50.0977   72.0914 C   0  0  0  0  0  0  0  0  0  0  0  0
   95.2879   50.3081   72.8776 C   0  0  1  0  0  0  0  0  0  0  0  0
   91.8350   46.8562   71.4638 C   0  0  0  0  0  0  0  0  0  0  0  0
   91.3206   47.8209   70.5234 N   0  0  0  0  0  0  0  0  0  0  0  0
   92.6433   45.7696   72.7562 N   0  0  0  0  0  0  0  0  0  0  0  0
   97.2321   47.5533   74.8980 P   0  0  0  0  0  5  0  0  0  0  0  0
   93.3691   47.8128   71.9871 N   0  0  0  0  0  0  0  0  0  0  0  0
   98.0967   48.6763   75.6343 O   0  0  0  0  0  0  0  0  0  0  0  0
   96.4765   49.7471   73.1355 C   0  0  0  0  0  0  0  0  0  0  0  0
   89.9134   44.6195   72.7951 N   0  0  0  0  0  0  0  0  0  0  0  0
   99.7100   46.6214   77.2508 O   0  0  0  0  0  0  0  0  0  0  0  0
   89.7901   46.0858   70.9548 N   0  0  0  0  0  0  0  0  0  0  0  0
   96.1866   46.6688   75.9511 O   0  0  0  0  0  0  0  0  0  0  0  0
  101.0903   45.9983   75.5480 O   0  0  0  0  0  1  0  0  0  0  0  0
   90.7549   45.6387   72.1617 C   0  0  0  0  0  0  0  0  0  0  0  0
   96.5423   48.5624   74.0629 O   0  0  0  0  0  0  0  0  0  0  0  0
   93.8126   50.7745   70.6399 O   0  0  0  0  0  0  0  0  0  0  0  0
   95.1754   51.5638   73.4192 O   0  0  0  0  0  0  0  0  0  0  0  0
   99.6152   46.3792   76.1297 P   0  0  0  0  0  4  0  0  0  0  0  0
   97.1313   46.3488   73.8427 O   0  0  0  0  0  0  0  0  0  0  0  0
   93.0244   46.9366   72.3699 C   0  0  0  0  0  0  0  0  0  0  0  0
   98.5770   45.1600   76.3967 O   0  0  0  0  0  0  0  0  0  0  0  0
   95.3036   48.7060   71.8790 O   0  0  0  0  0  0  0  0  0  0  0  0
   94.1012   49.1841   71.5110 C   0  0  2  0  0  0  0  0  0  0  0  0
   92.9968   51.2297   72.4430 O   0  0  0  0  0  0  0  0  0  0  0  0
   99.1742   46.8926   74.9024 O   0  0  0  0  0  0  0  0  0  0  0  0
  3  2  1  0
  5  1  2  0
  5  4  1  0
  9  7  1  0
 10  3  1  0
 13  1  1  0
 14  7  1  0
 16  4  2  0
 16 11  1  0
 16 13  1  0
 17  7  1  0
 17 10  1  0
 18  2  1  0
  3 19  1  6
 20 12  1  0
 20 15  1  0
 21  7  1  0
 22  4  1  0
 22  6  2  3
 22  8  1  0
 23 20  1  0
 25  2  1  0
 25  8  1  0
 25 24  1  1
 26  2  1  0
 27  7  1  0
 27 20  1  0
M  RAD  2  15   2  20   2
M  END
>  <ID>  (1) 
conformer_0

$$$$
