
     RDKit          3D

 25 27  0  0  0  0  0  0  0  0999 V2000
   92.2446   46.6504   71.9313 C   0  0  0  0  0  0  0  0  0  0  0  0
   94.3072   50.2068   72.3454 C   0  0  0  0  0  0  0  0  0  0  0  0
   95.7216   50.1790   72.7707 C   0  0  0  0  0  0  0  0  0  0  0  0
   93.3222   46.9553   72.8527 C   0  0  0  0  0  0  0  0  0  0  0  0
   91.6792   47.4359   70.6227 N   0  0  0  0  0  0  0  0  0  0  0  0
   99.5533   46.1455   76.0939 P   0  0  0  0  0  5  0  0  0  0  0  0
   97.0049   49.0551   73.0009 C   0  0  0  0  0  0  0  0  0  0  0  0
   92.7172   45.8845   73.3729 N   0  0  0  0  0  0  0  0  0  0  0  0
   93.5459   47.7289   72.2151 N   0  0  0  0  0  0  0  0  0  0  0  0
   90.0472   44.4189   73.1247 N   0  0  0  0  0  0  0  0  0  0  0  0
   99.6784   46.6200   77.0712 O   0  0  0  0  0  0  0  0  0  0  0  0
   96.0608   46.9989   75.8380 O   0  0  0  0  0  0  0  0  0  0  0  0
   90.1072   45.7701   71.0604 N   0  0  0  0  0  0  0  0  0  0  0  0
   98.3845   47.1686   75.3514 O   0  0  0  0  0  0  0  0  0  0  0  0
   99.3884   44.6378   75.7840 O   0  0  0  0  0  0  0  0  0  0  0  0
   91.0415   45.4964   72.5555 C   0  0  0  0  0  0  0  0  0  0  0  0
   96.6267   48.6066   74.1224 O   0  0  0  0  0  0  0  0  0  0  0  0
  100.5729   46.3263   75.0948 O   0  0  0  0  0  0  0  0  0  0  0  0
   97.0341   47.0948   74.9316 P   0  0  0  0  0  0  0  0  0  0  0  0
   94.0641   51.1166   71.0018 O   0  0  0  0  0  0  0  0  0  0  0  0
   95.4812   48.6353   72.0398 O   0  0  0  0  0  0  0  0  0  0  0  0
   94.3292   49.2674   71.6938 C   0  0  0  0  0  0  0  0  0  0  0  0
   90.7716   46.7484   70.6705 C   0  0  0  0  0  0  0  0  0  0  0  0
   97.1447   46.1879   73.9703 O   0  0  0  0  0  0  0  0  0  0  0  0
   93.4851   51.1482   73.0064 O   0  0  0  0  0  0  0  0  0  0  0  0
  3  2  1  0
  4  1  2  0
  5  1  1  0
  7  3  1  0
  8  1  1  0
  8  4  1  0
  9  4  1  0
 11  6  1  0
 14  6  1  0
 15  6  1  0
 16  8  1  0
 16 10  1  0
 16 13  1  0
 17  7  1  0
 18  6  1  0
 19 12  1  0
 19 17  1  0
 20  2  1  0
 21  3  1  0
 22  2  1  0
 22  9  1  0
 22 21  1  0
 23  5  1  0
 23 13  1  0
 24  6  1  0
 24 19  1  0
 25  2  1  0
M  END
>  <ID>  (1) 
conformer_0

$$$$
