
     RDKit          3D

 26 27  0  0  0  0  0  0  0  0999 V2000
   94.3037   50.2231   72.4699 C   0  0  0  0  0  0  0  0  0  0  0  0
   92.1843   46.8893   71.6532 C   0  0  2  0  0  0  0  0  0  0  0  0
   95.7489   50.2969   72.9118 C   0  0  2  0  0  0  0  0  0  0  0  0
   93.3397   46.6996   72.5288 C   0  0  0  0  0  0  0  0  0  0  0  0
   93.4904   47.7823   72.0053 N   0  0  0  0  0  0  0  0  0  0  0  0
   92.9365   45.6306   72.7519 N   0  0  0  0  0  0  0  0  0  0  0  0
   91.3312   47.7192   70.8677 N   0  0  0  0  0  0  0  0  0  0  0  0
   96.7537   47.2941   75.1945 P   0  0  0  0  0  0  0  0  0  0  0  0
   95.9526   47.1385   76.1867 O   0  0  0  0  0  0  0  0  0  0  0  0
   98.3915   47.7792   75.8842 O   0  0  0  0  0  0  0  0  0  0  0  0
   90.1839   44.3551   72.8087 N   0  0  0  0  0  0  0  0  0  0  0  0
   96.7025   49.1554   72.8410 C   0  0  2  0  0  0  0  0  0  0  0  0
   97.1152   46.2026   74.3104 O   0  0  0  0  0  0  0  0  0  0  0  0
   99.7702   45.9906   77.3185 O   0  0  0  0  0  0  0  0  0  0  0  0
   95.4041   48.5380   71.7502 O   0  0  0  0  0  0  0  0  0  0  0  0
   92.9454   50.9424   71.9935 O   0  0  0  0  0  0  0  0  0  0  0  0
   91.0499   45.4454   72.2485 C   0  0  0  0  0  0  0  0  0  0  0  0
   95.2879   51.5216   73.9451 O   0  0  0  0  0  0  0  0  0  0  0  0
   99.3165   46.3666   76.1900 P   0  0  0  0  0  5  0  0  0  0  0  0
   89.9657   45.8708   71.1024 N   0  0  0  0  0  0  0  0  0  0  0  0
   94.9483   51.4853   71.4518 O   0  0  0  0  0  0  0  0  0  0  0  0
  100.1334   46.4556   75.3647 O   0  0  0  0  0  0  0  0  0  0  0  0
   96.2386   48.2975   74.1389 O   0  0  0  0  0  0  0  0  0  0  0  0
   90.4577   46.8142   70.9590 C   0  0  0  0  0  0  0  0  0  0  0  0
   94.2834   48.9637   71.7654 C   0  0  2  0  0  0  0  0  0  0  0  0
   98.1881   45.1845   76.3253 O   0  0  0  0  0  0  0  0  0  0  0  0
  3  1  1  0
  4  2  1  0
  5  2  1  0
  5  4  1  0
  6  4  2  3
  2  7  1  1
  9  8  1  0
 12  3  1  0
 13  8  1  0
 15 12  1  0
 16  1  1  0
 17 11  1  0
  3 18  1  1
 19 10  1  0
 19 13  1  0
 19 14  1  0
 20 17  2  3
 21  1  1  0
 22 19  1  0
 23  8  1  0
 12 23  1  1
 24  7  1  0
 24 20  1  0
 25  1  1  0
 25  5  1  1
 25 15  1  0
 26 19  1  0
M  END
>  <ID>  (1) 
conformer_0

$$$$
