
     RDKit          3D

 24 24  0  0  0  0  0  0  0  0999 V2000
   95.6604   50.3833   72.9502 C   0  0  0  0  0  0  0  0  0  0  0  0
   90.3906   46.9740   70.1464 C   0  0  0  0  0  0  0  0  0  0  0  0
   96.7378   49.6518   73.2233 C   0  0  0  0  0  0  0  0  0  0  0  0
   91.8883   46.8862   71.4989 C   0  0  0  0  0  0  0  0  0  0  0  0
   89.9080   45.9010   70.8101 N   0  0  0  0  0  0  0  0  0  0  0  0
   92.7453   45.8704   72.9213 N   0  0  0  0  0  0  0  0  0  0  0  0
   91.4974   47.6934   70.4315 N   0  0  0  0  0  0  0  0  0  0  0  0
   93.3519   47.9483   72.1433 N   0  0  0  0  0  0  0  0  0  0  0  0
   96.7793   47.3318   75.3088 P   0  0  0  0  0  0  0  0  0  0  0  0
   94.3659   50.1801   72.4017 C   0  0  1  0  0  0  0  0  0  0  0  0
   96.0777   46.7509   76.1236 O   0  0  0  0  0  0  0  0  0  0  0  0
   91.0219   45.6926   71.9870 C   0  0  0  0  0  0  0  0  0  0  0  0
   99.2199   47.2677   75.9912 O   0  0  0  0  0  1  0  0  0  0  0  0
   90.5400   44.3051   72.5507 N   0  0  0  0  0  0  0  0  0  0  0  0
   96.9388   48.6054   74.8844 O   0  0  0  0  0  0  0  0  0  0  0  0
   93.2622   50.8611   71.6228 O   0  0  0  0  0  0  0  0  0  0  0  0
   99.2711   45.1409   76.2451 O   0  0  0  0  0  0  0  0  0  0  0  0
   95.3924   48.6988   72.2152 O   0  0  0  0  0  0  0  0  0  0  0  0
   97.4157   46.0421   74.2581 O   0  0  0  0  0  0  0  0  0  0  0  0
   94.8258   51.5637   74.0349 O   0  0  0  0  0  0  0  0  0  0  0  0
   99.2185   46.0918   76.0706 P   0  0  1  0  0  4  0  0  0  0  0  0
   93.1175   46.9756   72.6555 C   0  0  0  0  0  0  0  0  0  0  0  0
   94.1935   49.3121   71.7131 C   0  0  1  0  0  0  0  0  0  0  0  0
   95.2842   51.6388   71.6888 O   0  0  0  0  0  0  0  0  0  0  0  0
  3  1  1  0
  5  2  2  0
  7  2  1  0
  7  4  1  0
 10  1  1  0
 11  9  1  0
 12  4  2  0
 12  5  1  0
 14 12  1  0
 15  3  1  0
 15  9  1  0
 10 16  1  6
 19  9  1  0
 20  1  1  0
 21 13  1  1
 21 17  1  0
 21 19  1  0
 22  4  1  0
 22  6  2  3
 22  8  1  0
 23  8  1  0
 23 10  1  0
 23 18  1  1
 24  1  1  0
M  RAD  2  13   2  21   2
M  END
>  <ID>  (1) 
conformer_0

$$$$
