
     RDKit          3D

 25 25  0  0  0  0  0  0  0  0999 V2000
   96.7745   49.7028   73.2588 C   0  0  0  0  0  0  0  0  0  0  0  0
   90.5234   46.9300   70.2261 C   0  0  0  0  0  0  0  0  0  0  0  0
   95.4812   50.1059   73.6418 C   0  0  1  0  0  0  0  0  0  0  0  0
   92.0761   47.0001   71.4600 C   0  0  0  0  0  0  0  0  0  0  0  0
   89.9763   45.8704   70.9042 N   0  0  0  0  0  0  0  0  0  0  0  0
   92.7487   45.9801   73.0124 N   0  0  0  0  0  0  0  0  0  0  0  0
   95.9357   47.1566   76.2836 O   0  0  0  0  0  0  0  0  0  0  0  0
   95.6612   48.9869   71.8303 O   0  0  0  0  0  0  0  0  0  0  0  0
   99.1792   46.2202   75.6909 P   0  0  0  0  0  5  0  0  0  0  0  0
   93.5557   47.8860   72.2257 N   0  0  0  0  0  0  0  0  0  0  0  0
   91.0222   45.7238   72.0863 C   0  0  0  0  0  0  0  0  0  0  0  0
   91.5802   47.5934   70.3801 N   0  0  0  0  0  0  0  0  0  0  0  0
   96.3750   48.5419   74.2650 O   0  0  0  0  0  0  0  0  0  0  0  0
   94.1623   51.0959   73.8750 O   0  0  0  0  0  0  0  0  0  0  0  0
   90.8188   44.2507   72.4846 N   0  0  0  0  0  0  0  0  0  0  0  0
   94.3779   50.0085   72.4954 C   0  0  1  0  0  0  0  0  0  0  0  0
   98.2504   44.8477   75.9042 O   0  0  0  0  0  0  0  0  0  0  0  0
   99.7545   46.1148   74.5019 O   0  0  0  0  0  0  0  0  0  0  0  0
   93.6985   51.0018   71.5692 O   0  0  0  0  0  0  0  0  0  0  0  0
   98.6027   48.9270   76.0371 O   0  0  0  0  0  0  0  0  0  0  0  0
   97.1431   47.8461   75.3216 P   0  0  0  0  0  0  0  0  0  0  0  0
   93.2750   46.9970   72.7362 C   0  0  0  0  0  0  0  0  0  0  0  0
   99.7120   46.1295   76.9265 O   0  0  0  0  0  0  0  0  0  0  0  0
   97.8786   47.1004   75.1591 O   0  0  0  0  0  0  0  0  0  0  0  0
   94.1566   49.2135   71.8230 C   0  0  1  0  0  0  0  0  0  0  0  0
  3  1  1  0
  5  2  2  0
 11  4  2  0
 11  5  1  0
 12  2  1  0
 12  4  1  0
 13  1  1  0
  3 14  1  6
 15 11  1  0
 16  3  1  0
 17  9  1  0
 18  9  1  0
 16 19  1  6
 20  9  1  0
 21  7  1  0
 21 13  1  0
 22  4  1  0
 22  6  2  3
 22 10  1  0
 23  9  1  0
 24  9  1  0
 24 21  1  0
 25  8  1  1
 25 10  1  0
 25 16  1  0
M  END
>  <ID>  (1) 
conformer_0

$$$$
