
     RDKit          3D

 25 26  0  0  0  0  0  0  0  0999 V2000
   90.5855   47.3201   70.4103 C   0  0  0  0  0  0  0  0  0  0  0  0
   94.3095   50.0988   72.6507 C   0  0  1  0  0  0  0  0  0  0  0  0
   95.5592   50.1859   73.1637 C   0  0  2  0  0  0  0  0  0  0  0  0
   92.1589   46.9471   71.6622 C   0  0  2  0  0  0  0  0  0  0  0  0
   91.4025   48.0268   70.4851 N   0  0  0  0  0  0  0  0  0  0  0  0
   92.8585   45.7955   73.0329 N   0  0  0  0  0  0  0  0  0  0  0  0
   95.2079   48.7557   71.5824 O   0  0  0  0  0  0  0  0  0  0  0  0
   99.6517   46.1750   76.1578 P   0  0  0  0  0  5  0  0  0  0  0  0
   93.3574   47.8293   72.0188 N   0  0  0  0  0  0  0  0  0  0  0  0
   91.0889   45.7629   72.0050 C   0  0  0  0  0  3  0  0  0  0  0  0
   96.3146   46.8663   76.2727 O   0  0  0  0  0  0  0  0  0  0  0  0
   99.5358   46.6216   77.3048 O   0  0  0  0  0  0  0  0  0  0  0  0
   96.6194   48.9834   72.8982 C   0  0  0  0  0  0  0  0  0  0  0  0
   90.1593   44.5219   72.4799 N   0  0  0  0  0  0  0  0  0  0  0  0
   93.5690   51.1665   71.8057 O   0  0  0  0  0  0  0  0  0  0  0  0
   98.5354   46.7858   74.8609 O   0  0  0  0  0  0  0  0  0  0  0  0
  100.8534   46.3179   75.6924 O   0  0  0  0  0  0  0  0  0  0  0  0
   95.1603   51.4178   73.8654 O   0  0  0  0  0  0  0  0  0  0  0  0
   96.9229   46.7656   75.0922 P   0  0  0  0  0  0  0  0  0  0  0  0
   90.0463   46.3249   70.7181 N   0  0  0  0  0  0  0  0  0  0  0  0
   96.3124   48.0880   73.9557 O   0  0  0  0  0  0  0  0  0  0  0  0
   93.3353   46.7225   72.7566 C   0  0  0  0  0  0  0  0  0  0  0  0
   94.0132   49.3022   71.7443 C   0  0  1  0  0  0  0  0  0  0  0  0
   96.5047   45.8204   74.3612 O   0  0  0  0  0  0  0  0  0  0  0  0
   99.4363   44.7913   76.4974 O   0  0  0  0  0  0  0  0  0  0  0  0
  3  2  1  0
  5  1  2  0
  5  4  1  0
  9  4  1  0
  4 10  1  1
 12  8  1  0
 13  3  1  0
 14 10  1  0
  2 15  1  6
 16  8  1  0
 17  8  1  0
  3 18  1  1
 19 11  1  0
 20  1  1  0
 20 10  1  0
 21 13  1  0
 21 19  1  0
 22  4  1  0
 22  6  2  3
 22  9  1  0
 23  2  1  0
 23  7  1  1
 23  9  1  0
 24  8  1  0
 24 19  1  0
 25  8  1  0
M  RAD  1  10   2
M  END
>  <ID>  (1) 
conformer_0

$$$$
