
     RDKit          3D

 24 25  0  0  0  0  0  0  0  0999 V2000
   95.6791   50.1554   73.2909 C   0  0  1  0  0  0  0  0  0  0  0  0
   90.2456   46.8902   70.2741 C   0  0  0  0  0  0  0  0  0  0  0  0
   97.0030   49.0756   73.2552 C   0  0  2  0  0  0  0  0  0  0  0  0
   91.8633   46.9761   71.5827 C   0  0  0  0  0  0  0  0  0  0  0  0
   89.7106   46.0057   70.9294 N   0  0  0  0  0  0  0  0  0  0  0  0
   99.8148   46.1132   76.2354 P   0  0  0  0  0  4  0  0  0  0  0  0
   95.6710   48.7770   72.1021 O   0  0  0  0  0  0  0  0  0  0  0  0
   94.4292   49.9928   72.5125 C   0  0  2  0  0  0  0  0  0  0  0  0
   93.2191   47.7967   72.1161 N   0  0  0  0  0  0  0  0  0  0  0  0
   92.4798   46.0632   73.0942 N   0  0  0  0  0  0  0  0  0  0  0  0
   97.2632   47.6586   74.2635 O   0  0  0  0  0  0  0  0  0  0  0  0
   93.3853   50.8039   71.6134 O   0  0  0  0  0  0  0  0  0  0  0  0
   90.7274   45.8033   72.2025 C   0  0  0  0  0  0  0  0  0  0  0  0
  101.1209   45.9008   75.9692 O   0  0  0  0  0  1  0  0  0  0  0  0
   94.7052   51.3058   73.8869 O   0  0  0  0  0  0  0  0  0  0  0  0
   89.9780   44.6272   72.8371 N   0  0  0  0  0  0  0  0  0  0  0  0
   99.5650   47.0579   77.0228 O   0  0  0  0  0  0  0  0  0  0  0  0
   96.7909   46.5746   76.0890 O   0  0  0  0  0  0  0  0  0  0  0  0
   99.0715   44.7498   76.2763 O   0  0  0  0  0  0  0  0  0  0  0  0
   91.3034   47.5033   70.3024 N   0  0  0  0  0  0  0  0  0  0  0  0
   93.9044   49.2804   71.6709 C   0  0  0  0  0  0  0  0  0  0  0  0
   93.0481   47.0408   72.7234 C   0  0  0  0  0  0  0  0  0  0  0  0
   97.6417   46.8387   75.1551 P   0  0  0  0  0  0  0  0  0  0  0  0
   98.9365   46.5480   74.8188 O   0  0  0  0  0  0  0  0  0  0  0  0
  3  1  1  0
  5  2  2  0
  7  3  1  0
  8  1  1  0
  8  7  1  0
  3 11  1  1
  8 12  1  6
 13  4  2  0
 13  5  1  0
 14  6  1  0
  1 15  1  1
 16 13  1  0
 17  6  1  0
 19  6  1  0
 20  2  1  0
 20  4  1  0
 21  8  1  0
 21  9  2  3
 22  4  1  0
 22  9  1  0
 22 10  2  3
 23 11  1  0
 23 18  1  0
 24  6  1  0
 24 23  1  0
M  RAD  2   6   2  14   2
M  END
>  <ID>  (1) 
conformer_0

$$$$
