
     RDKit          3D

 26 27  0  0  0  0  0  0  0  0999 V2000
   94.4893   50.0710   72.2236 C   0  0  0  0  0  0  0  0  0  0  0  0
   91.9949   46.1470   72.2284 C   0  0  0  0  0  0  0  0  0  0  0  0
   95.7505   50.1412   72.8818 C   0  0  0  0  0  0  0  0  0  0  0  0
   93.8913   46.8738   72.9627 C   0  0  0  0  0  0  0  0  0  0  0  0
   89.8503   46.0056   71.1310 N   0  0  0  0  0  0  0  0  0  0  0  0
   99.4621   46.3667   76.0576 P   0  0  0  0  0  4  0  0  0  0  0  0
   92.9439   45.8161   73.0391 N   0  0  0  0  0  0  0  0  0  0  0  0
   93.5683   47.7139   72.1408 N   0  0  0  0  0  0  0  0  0  0  0  0
   90.0169   44.5129   72.8703 N   0  0  0  0  0  0  0  0  0  0  0  0
   96.8663   49.1716   73.0799 C   0  0  0  0  0  0  0  0  0  0  0  0
   96.1022   47.0475   76.2049 O   0  0  0  0  0  0  0  0  0  0  0  0
   93.5710   50.8563   71.0640 O   0  0  0  0  0  0  0  0  0  0  0  0
   97.2772   45.9232   74.5675 O   0  0  0  0  0  1  0  0  0  0  0  0
   90.2332   47.0999   70.4944 C   0  0  0  0  0  0  0  0  0  0  0  0
   99.3750   46.4517   77.2384 O   0  0  0  0  0  0  0  0  0  0  0  0
  100.6917   46.3519   75.4850 O   0  0  0  0  0  1  0  0  0  0  0  0
   91.3974   47.6856   70.6878 N   0  0  0  0  0  0  0  0  0  0  0  0
   95.4153   48.6064   71.9201 O   0  0  0  0  0  0  0  0  0  0  0  0
   92.3854   47.2607   71.6085 C   0  0  0  0  0  0  0  0  0  0  0  0
   98.9155   44.6898   75.9357 O   0  0  0  0  0  0  0  0  0  0  0  0
   97.2551   46.8685   74.9791 P   0  0  0  0  0  4  0  0  0  0  0  0
   95.2449   51.4296   72.8054 O   0  0  0  0  0  0  0  0  0  0  0  0
   94.2289   49.1911   71.6049 C   0  0  0  0  0  0  0  0  0  0  0  0
   96.7650   48.0537   73.9174 O   0  0  0  0  0  0  0  0  0  0  0  0
   98.7207   47.3781   75.2904 O   0  0  0  0  0  0  0  0  0  0  0  0
   90.5568   45.5967   72.2382 C   0  0  0  0  0  0  0  0  0  0  0  0
  3  1  1  0
  7  2  1  0
  7  4  2  0
  8  4  1  0
 10  3  1  0
 12  1  1  0
 14  5  1  0
 15  6  1  0
 16  6  1  0
 17 14  2  0
 19  2  2  0
 19  8  1  0
 19 17  1  0
 20  6  1  0
 21 11  1  0
 21 13  1  0
 22  3  1  0
 23  1  1  0
 23  8  1  0
 23 18  1  0
 24 10  1  0
 24 21  1  0
 25  6  1  0
 25 21  1  0
 26  2  1  0
 26  5  2  0
 26  9  1  0
M  RAD  4   6   2  13   2  16   2  21   2
M  END
>  <ID>  (1) 
conformer_0

$$$$
