
     RDKit          3D

 26 27  0  0  0  0  0  0  0  0999 V2000
   95.5556   50.0626   72.9614 C   0  0  0  0  0  0  0  0  0  0  0  0
   90.2721   46.7592   70.5062 C   0  0  0  0  0  0  0  0  0  0  0  0
   93.9728   50.0271   72.5098 C   0  0  0  0  0  0  0  0  0  0  0  0
   89.8499   45.7792   70.9826 N   0  0  0  0  0  0  0  0  0  0  0  0
   91.9127   46.7897   71.6118 C   0  0  0  0  0  3  0  0  0  0  0  0
   93.0882   47.7229   71.9144 N   0  0  0  0  0  0  0  0  0  0  0  0
   95.0894   48.3952   71.7013 O   0  0  0  0  0  0  0  0  0  0  0  0
   92.5838   45.7889   72.9638 N   0  0  0  0  0  0  0  0  0  0  0  0
   97.0298   47.6930   75.1983 P   0  0  0  0  0  0  0  0  0  0  0  0
   95.9156   46.8636   75.9469 O   0  0  0  0  0  0  0  0  0  0  0  0
   90.2463   44.2444   72.5733 N   0  0  0  0  0  0  0  0  0  0  0  0
   99.8969   46.4918   76.8967 O   0  0  0  0  0  0  0  0  0  0  0  0
   96.5444   49.1890   72.8147 C   0  0  0  0  0  0  0  0  0  0  0  0
   97.5245   49.2102   76.0005 O   0  0  0  0  0  0  0  0  0  0  0  0
  100.1473   46.0266   74.5882 O   0  0  0  0  0  0  0  0  0  0  0  0
   92.4876   50.7805   72.4470 O   0  0  0  0  0  0  0  0  0  0  0  0
   90.9161   45.3917   72.2125 C   0  0  0  0  0  0  0  0  0  0  0  0
   91.1320   47.5096   70.4573 N   0  0  0  0  0  0  0  0  0  0  0  0
   94.4581   51.2446   73.9890 O   0  0  0  0  0  0  0  0  0  0  0  0
   99.2738   46.1469   75.7125 P   0  0  0  0  0  5  0  0  0  0  0  0
   98.4058   45.0139   76.1344 O   0  0  0  0  0  0  0  0  0  0  0  0
   94.4934   51.2084   71.3973 O   0  0  0  0  0  0  0  0  0  0  0  0
   98.1950   47.0704   75.0033 O   0  0  0  0  0  0  0  0  0  0  0  0
   96.5557   48.3595   74.0318 O   0  0  0  0  0  0  0  0  0  0  0  0
   93.8869   49.0626   71.7858 C   0  0  0  0  0  0  0  0  0  0  0  0
   93.0400   46.7689   72.5218 C   0  0  0  0  0  0  0  0  0  0  0  0
  3  1  1  0
  4  2  2  0
 10  9  1  0
 13  1  1  0
 16  3  1  0
 17  4  1  0
 17  5  1  0
 17  8  1  0
 17 11  1  0
 18  2  1  0
 18  5  1  0
 19  1  1  0
 20 12  1  0
 20 14  1  0
 20 15  1  0
 21 20  1  0
 22  3  1  0
 23  9  1  0
 23 20  1  0
 24  9  1  0
 24 13  1  0
 25  3  1  0
 25  6  1  0
 25  7  1  0
 26  5  1  0
 26  6  1  0
 26  8  2  0
M  RAD  1   5   2
M  END
>  <ID>  (1) 
conformer_0

$$$$
