
     RDKit          3D

 22 24  0  0  0  0  0  0  0  0999 V2000
   94.2811   50.2105   72.5910 C   0  0  1  0  0  0  0  0  0  0  0  0
   90.9618   47.1207   70.7022 C   0  0  0  0  0  0  0  0  0  0  0  0
   95.9075   50.0054   72.9154 C   0  0  2  0  0  0  0  0  0  0  0  0
   93.0268   47.0201   72.1237 C   0  0  0  0  0  0  0  0  0  0  0  0
   91.3880   47.8383   70.4755 N   0  0  0  0  0  0  0  0  0  0  0  0
   96.9206   49.0430   72.9734 C   0  0  2  0  0  0  0  0  0  0  0  0
   95.8924   47.1335   76.1541 O   0  0  0  0  0  0  0  0  0  0  0  0
   99.1759   46.2605   76.0921 P   0  0  1  0  0  4  0  0  0  0  0  0
   93.3588   47.8436   71.7743 N   0  0  0  0  0  0  0  0  0  0  0  0
   92.7794   45.7241   72.7134 N   0  0  0  0  0  0  0  0  0  0  0  0
   95.5462   48.4474   71.9846 O   0  0  0  0  0  0  0  0  0  0  0  0
   99.2335   45.9360   77.0036 O   0  0  0  0  0  0  0  0  0  0  0  0
   93.3903   51.0984   72.1331 O   0  0  0  0  0  0  0  0  0  0  0  0
   97.7058   48.0798   74.7757 O   0  0  0  0  0  0  0  0  0  0  0  0
   90.1968   44.6618   72.5760 N   0  0  0  0  0  0  0  0  0  0  0  0
   99.8996   46.3883   75.1344 O   0  0  0  0  0  1  0  0  0  0  0  0
   97.1085   45.5932   74.9659 O   0  0  0  0  0  0  0  0  0  0  0  0
   89.9442   46.1039   70.8838 N   0  0  0  0  0  0  0  0  0  0  0  0
   91.5035   46.1533   71.9161 C   0  0  1  0  0  0  0  0  0  0  0  0
   95.1400   51.4856   73.4689 O   0  0  0  0  0  0  0  0  0  0  0  0
   96.9056   47.1741   75.1852 P   0  0  0  0  0  0  0  0  0  0  0  0
   94.1421   49.3215   71.7842 C   0  0  2  0  0  0  0  0  0  0  0  0
  3  1  1  0
  5  2  2  3
  6  3  1  0
  9  4  1  0
 10  4  2  0
 11  6  1  0
  8 12  1  1
  1 13  1  6
  6 14  1  1
 16  8  1  0
 17  8  1  0
 18  2  1  0
 18 15  1  0
 19  2  1  0
 19  4  1  0
 19 10  1  0
 19 18  1  1
  3 20  1  1
 21  7  1  0
 21 14  1  0
 21 17  1  0
 22  1  1  0
 22  9  1  1
 22 11  1  0
M  RAD  2   8   2  16   2
M  END
>  <ID>  (1) 
conformer_0

$$$$
