
     RDKit          3D

 24 25  0  0  0  0  0  0  0  0999 V2000
   95.8324   50.0957   73.2850 C   0  0  2  0  0  0  0  0  0  0  0  0
   90.1306   47.2772   70.1860 C   0  0  0  0  0  0  0  0  0  0  0  0
   96.9693   49.0882   73.1268 C   0  0  0  0  0  0  0  0  0  0  0  0
   91.4871   46.8788   71.2963 C   0  0  2  0  0  0  0  0  0  0  0  0
   91.4188   47.9162   70.5185 N   0  0  0  0  0  0  0  0  0  0  0  0
   95.6886   47.3272   76.0377 O   0  0  0  0  0  0  0  0  0  0  0  0
   92.4429   45.8555   72.7728 N   0  0  0  0  0  0  0  0  0  0  0  0
   89.6323   46.0841   70.8952 N   0  0  0  0  0  0  0  0  0  0  0  0
   96.4775   47.3573   75.2598 P   0  0  0  0  0  0  0  0  0  0  0  0
   94.3717   50.0202   72.5888 C   0  0  1  0  0  0  0  0  0  0  0  0
   95.4719   48.5947   72.0866 O   0  0  0  0  0  0  0  0  0  0  0  0
   99.5427   46.6740   76.7964 O   0  0  0  0  0  0  0  0  0  0  0  0
   90.5649   45.5960   72.1115 C   0  0  0  0  0  0  0  0  0  0  0  0
   89.9247   44.5405   72.7041 N   0  0  0  0  0  0  0  0  0  0  0  0
   97.2318   48.3889   74.9450 O   0  0  0  0  0  0  0  0  0  0  0  0
   99.8753   46.5494   74.6261 O   0  0  0  0  0  1  0  0  0  0  0  0
   93.2188   47.8076   71.9254 N   0  0  0  0  0  0  0  0  0  0  0  0
   97.0460   45.8612   75.0519 O   0  0  0  0  0  0  0  0  0  0  0  0
   93.4391   51.0017   71.8568 O   0  0  0  0  0  0  0  0  0  0  0  0
   99.0016   44.6972   75.6462 O   0  0  0  0  0  0  0  0  0  0  0  0
   99.0551   46.2852   75.4714 P   0  0  0  0  0  4  0  0  0  0  0  0
   93.9933   49.2167   71.9604 C   0  0  1  0  0  0  0  0  0  0  0  0
   94.9399   51.4900   73.2276 O   0  0  0  0  0  0  0  0  0  0  0  0
   92.8478   46.8371   72.3558 C   0  0  0  0  0  0  0  0  0  0  0  0
  3  1  1  0
  4  2  1  0
  5  2  2  0
  5  4  1  0
  8  2  1  0
  9  6  1  0
 10  1  1  0
 13  4  1  0
 13  8  2  0
 14 13  1  0
 15  3  1  0
 15  9  1  0
 18  9  1  0
 10 19  1  6
 21 12  1  0
 21 16  1  0
 21 18  1  0
 21 20  1  0
 22 10  1  0
 22 11  1  1
 22 17  1  0
  1 23  1  6
  4 24  1  6
 24  7  2  3
 24 17  1  0
M  RAD  2  16   2  21   2
M  END
>  <ID>  (1) 
conformer_0

$$$$
