
     RDKit          3D

 25 27  0  0  0  0  0  0  0  0999 V2000
   90.5096   46.7930   70.5936 C   0  0  0  0  0  0  0  0  0  0  0  0
   96.0064   50.4330   73.0665 C   0  0  0  0  0  0  0  0  0  0  0  0
   96.8365   49.3717   72.9638 C   0  0  0  0  0  0  0  0  0  0  0  0
   92.0837   46.8645   71.8224 C   0  0  0  0  0  3  0  0  0  0  0  0
   89.9567   45.8131   70.9554 N   0  0  0  0  0  0  0  0  0  0  0  0
   92.6173   45.8813   73.1427 N   0  0  0  0  0  0  0  0  0  0  0  0
   99.1182   45.8456   75.9284 P   0  0  0  0  0  4  0  0  0  0  0  0
   99.3677   46.5427   75.0037 O   0  0  0  0  0  1  0  0  0  0  0  0
   93.4809   47.8446   72.3932 N   0  0  0  0  0  0  0  0  0  0  0  0
   97.0987   48.4703   74.5855 O   0  0  0  0  0  0  0  0  0  0  0  0
   94.5534   50.1779   72.6488 C   0  0  0  0  0  0  0  0  0  0  0  0
   90.3738   44.2379   72.7634 N   0  0  0  0  0  0  0  0  0  0  0  0
   96.2640   46.8195   76.0982 O   0  0  0  0  0  0  0  0  0  0  0  0
   95.5397   48.6828   72.2470 O   0  0  0  0  0  0  0  0  0  0  0  0
   98.4131   44.6698   75.8305 O   0  0  0  0  0  0  0  0  0  0  0  0
   91.0026   45.5442   72.3303 C   0  0  0  0  0  0  0  0  0  0  0  0
   91.4792   47.5092   70.6175 N   0  0  0  0  0  0  0  0  0  0  0  0
   94.0106   51.2123   71.4774 O   0  0  0  0  0  0  0  0  0  0  0  0
   95.7009   51.8803   73.2170 O   0  0  0  0  0  0  0  0  0  0  0  0
   97.0099   47.1621   74.9176 P   0  0  0  0  0  0  0  0  0  0  0  0
   99.4150   45.9818   77.1542 O   0  0  0  0  0  0  0  0  0  0  0  0
   93.2383   46.9351   72.8841 C   0  0  0  0  0  0  0  0  0  0  0  0
   94.0955   49.2992   72.1240 C   0  0  0  0  0  0  0  0  0  0  0  0
   93.4165   50.9638   73.6261 O   0  0  0  0  0  0  0  0  0  0  0  0
   97.0869   46.5562   74.0452 O   0  0  0  0  0  0  0  0  0  0  0  0
  3  2  1  0
  5  1  2  0
  8  7  1  0
 10  3  1  0
 11  2  1  0
 14  3  1  0
 15  7  1  0
 16  4  1  0
 16  5  1  0
 16  6  1  0
 16 12  1  0
 17  1  1  0
 17  4  1  0
 18 11  1  0
 19  2  1  0
 20 10  1  0
 20 13  1  0
 21  7  1  0
 22  4  1  0
 22  6  2  0
 22  9  1  0
 23  9  1  0
 23 11  1  0
 23 14  1  0
 24 11  1  0
 25  7  1  0
 25 20  1  0
M  RAD  3   4   2   7   2   8   2
M  END
>  <ID>  (1) 
conformer_0

$$$$
