
     RDKit          3D

 24 24  0  0  0  0  0  0  0  0999 V2000
   90.7266   46.8200   70.5819 C   0  0  0  0  0  0  0  0  0  0  0  0
   95.4789   50.3009   73.2881 C   0  0  0  0  0  0  0  0  0  0  0  0
   94.3080   50.0743   72.5636 C   0  0  0  0  0  0  0  0  0  0  0  0
   93.3129   46.6530   72.7766 C   0  0  0  0  0  0  0  0  0  0  0  0
   91.6814   47.6704   70.5786 N   0  0  0  0  0  0  0  0  0  0  0  0
   92.8021   45.6776   73.0161 N   0  0  0  0  0  0  0  0  0  0  0  0
   99.4600   46.3521   76.2152 P   0  0  0  0  0  4  0  0  0  0  0  0
   96.1962   46.7541   76.2143 O   0  0  0  0  0  0  0  0  0  0  0  0
   97.6407   46.2246   74.3337 O   0  0  0  0  0  1  0  0  0  0  0  0
   93.5039   47.5826   72.2151 N   0  0  0  0  0  0  0  0  0  0  0  0
   95.4485   48.5228   72.1334 O   0  0  0  0  0  0  0  0  0  0  0  0
   89.9338   45.9252   70.8197 N   0  0  0  0  0  0  0  0  0  0  0  0
   90.2543   44.2215   72.7873 N   0  0  0  0  0  0  0  0  0  0  0  0
   96.6854   49.2952   73.3734 C   0  0  0  0  0  0  0  0  0  0  0  0
   94.4225   51.0350   71.1923 O   0  0  0  0  0  0  0  0  0  0  0  0
   91.0135   45.4399   72.1685 C   0  0  0  0  0  0  0  0  0  0  0  0
   99.0712   45.2931   76.6507 O   0  0  0  0  0  0  0  0  0  0  0  0
  100.4386   46.7444   76.0763 O   0  0  0  0  0  1  0  0  0  0  0  0
   93.7468   51.1348   73.5979 O   0  0  0  0  0  0  0  0  0  0  0  0
   97.3481   47.0532   75.0932 P   0  0  1  0  0  4  0  0  0  0  0  0
   94.5389   49.0937   71.8489 C   0  0  2  0  0  0  0  0  0  0  0  0
   92.1890   46.7026   71.6710 C   0  0  0  0  0  0  0  0  0  0  0  0
   96.7410   48.3824   74.1609 O   0  0  0  0  0  0  0  0  0  0  0  0
   98.5058   47.5484   75.6555 O   0  0  0  0  0  0  0  0  0  0  0  0
  3  2  1  0
  5  1  1  0
  6  4  2  3
 10  4  1  0
 12  1  1  0
 14  2  1  0
 15  3  1  0
 16 12  2  0
 16 13  1  0
 17  7  1  0
 18  7  1  0
 19  3  1  0
 20  8  1  1
 20  9  1  0
 21  3  1  0
 21 10  1  0
 21 11  1  1
 22  4  1  0
 22  5  2  0
 22 16  1  0
 23 14  1  0
 23 20  1  0
 24  7  1  0
 24 20  1  0
M  RAD  4   7   2   9   2  18   2  20   2
M  END
>  <ID>  (1) 
conformer_0

$$$$
