
     RDKit          3D

 24 23  0  0  0  0  0  0  0  0999 V2000
   96.5411   49.2295   73.0812 C   0  0  0  0  0  0  0  0  0  0  0  0
   91.3491   46.9919   70.9432 C   0  0  0  0  0  0  0  0  0  0  0  0
   95.4873   50.3241   73.2575 C   0  0  2  0  0  0  0  0  0  0  0  0
   89.9123   45.6111   70.9975 N   0  0  0  0  0  0  0  0  0  0  0  0
   93.0504   46.9027   72.2196 C   0  0  0  0  0  0  0  0  0  0  0  0
   93.3579   47.8715   71.8580 N   0  0  0  0  0  0  0  0  0  0  0  0
   92.8714   45.7133   72.8456 N   0  0  0  0  0  0  0  0  0  0  0  0
   95.8132   47.2487   76.1413 O   0  0  0  0  0  0  0  0  0  0  0  0
   96.9118   47.0620   75.1226 P   0  0  0  0  0  0  0  0  0  0  0  0
   95.1770   48.8923   71.6460 O   0  0  0  0  0  0  0  0  0  0  0  0
   99.5581   46.0294   77.3593 O   0  0  0  0  0  0  0  0  0  0  0  0
   90.6315   44.1553   72.6155 N   0  0  0  0  0  0  0  0  0  0  0  0
   94.2186   50.2551   72.5139 C   0  0  1  0  0  0  0  0  0  0  0  0
   96.8579   45.7977   74.7194 O   0  0  0  0  0  0  0  0  0  0  0  0
   91.3703   45.7193   71.9614 C   0  0  0  0  0  0  0  0  0  0  0  0
   98.6420   47.7001   75.7838 O   0  0  0  0  0  0  0  0  0  0  0  0
   93.7538   51.1874   71.4968 O   0  0  0  0  0  0  0  0  0  0  0  0
   95.0090   51.6023   73.6328 O   0  0  0  0  0  0  0  0  0  0  0  0
  100.8584   46.5294   75.8071 O   0  0  0  0  0  0  0  0  0  0  0  0
   99.5437   46.5047   76.1368 P   0  0  0  0  0  5  0  0  0  0  0  0
   96.7499   48.1898   74.2725 O   0  0  0  0  0  0  0  0  0  0  0  0
   99.2920   44.6849   75.6045 O   0  0  0  0  0  0  0  0  0  0  0  0
   93.9789   49.3220   71.6906 C   0  0  2  0  0  0  0  0  0  0  0  0
   90.9786   47.1010   70.4297 N   0  0  0  0  0  0  0  0  0  0  0  0
  3  1  1  0
  6  5  1  0
  7  5  1  0
  9  8  1  0
 13  3  1  0
 14  9  1  0
 15  2  1  0
 15  4  1  0
 15  7  1  0
 15 12  1  0
 13 17  1  6
  3 18  1  6
 20 11  1  0
 20 14  1  0
 20 16  1  0
 20 19  1  0
 21  1  1  0
 21  9  1  0
 22 20  1  0
 23  6  1  0
 23 10  1  1
 23 13  1  0
 24  2  2  3
M  END
>  <ID>  (1) 
conformer_0

$$$$
