
     RDKit          3D

 24 25  0  0  0  0  0  0  0  0999 V2000
   90.3120   47.1313   70.8222 C   0  0  0  0  0  0  0  0  0  0  0  0
   93.8630   49.6171   71.8400 C   0  0  0  0  0  0  0  0  0  0  0  0
   94.5175   50.0476   72.4308 C   0  0  0  0  0  0  0  0  0  0  0  0
   92.0303   47.0653   71.8236 C   0  0  0  0  0  3  0  0  0  0  0  0
   89.9642   46.1072   71.1900 N   0  0  0  0  0  0  0  0  0  0  0  0
   92.9571   46.0429   72.8333 N   0  0  0  0  0  0  0  0  0  0  0  0
   99.2663   46.2006   75.7393 P   0  0  0  0  0  4  0  0  0  0  0  0
   96.1823   47.0924   76.1525 O   0  0  0  0  0  0  0  0  0  0  0  0
   95.7716   50.0181   72.9327 C   0  0  0  0  0  0  0  0  0  0  0  0
   99.3184   46.5552   76.8883 O   0  0  0  0  0  0  0  0  0  0  0  0
   90.7385   44.4346   72.6388 N   0  0  0  0  0  0  0  0  0  0  0  0
   97.7928   47.8489   74.7646 O   0  0  0  0  0  0  0  0  0  0  0  0
  100.0330   46.4811   74.9118 O   0  0  0  0  0  1  0  0  0  0  0  0
   93.3709   48.0913   72.2518 N   0  0  0  0  0  0  0  0  0  0  0  0
   91.1911   45.6807   72.2597 C   0  0  0  0  0  0  0  0  0  0  0  0
   93.6410   50.9766   71.1900 O   0  0  0  0  0  0  0  0  0  0  0  0
   98.9152   44.5888   75.5749 O   0  0  0  0  0  0  0  0  0  0  0  0
   95.9433   48.6258   73.0515 O   0  0  0  0  0  0  0  0  0  0  0  0
   95.3252   51.4454   72.9738 O   0  0  0  0  0  0  0  0  0  0  0  0
   91.3776   47.8246   70.9404 N   0  0  0  0  0  0  0  0  0  0  0  0
   96.8289   47.2803   75.0589 P   0  0  0  0  0  4  0  0  0  0  0  0
   96.5816   46.0667   74.2297 O   0  0  0  0  0  1  0  0  0  0  0  0
   97.1991   48.8063   73.0242 C   0  0  0  0  0  0  0  0  0  0  0  0
   93.2803   47.0503   72.7299 C   0  0  0  0  0  0  0  0  0  0  0  0
  3  2  1  0
  5  1  2  0
  9  3  1  0
 10  7  1  0
 13  7  1  0
 14  2  1  0
 15  4  1  0
 15  5  1  0
 15  6  1  0
 15 11  1  0
 16  2  1  0
 17  7  1  0
 18  9  1  0
 19  9  1  0
 20  1  1  0
 20  4  1  0
 21  7  1  0
 21  8  1  0
 21 12  1  0
 22 21  1  0
 23 12  1  0
 23 18  1  0
 24  4  1  0
 24  6  2  0
 24 14  1  0
M  RAD  5   4   2   7   2  13   2  21   2  22   2
M  END
>  <ID>  (1) 
conformer_0

$$$$
