
     RDKit          3D

 22 23  0  0  0  0  0  0  0  0999 V2000
   93.9324   49.3733   71.9436 C   0  0  0  0  0  0  0  0  0  0  0  0
   90.9595   46.8889   71.0875 C   0  0  0  0  0  0  0  0  0  0  0  0
   94.5113   50.2096   72.6879 C   0  0  0  0  0  0  0  0  0  0  0  0
   89.8243   45.7555   71.0676 N   0  0  0  0  0  0  0  0  0  0  0  0
   93.0507   46.9309   72.3468 C   0  0  0  0  0  0  0  0  0  0  0  0
   92.8787   45.7141   72.9668 N   0  0  0  0  0  0  0  0  0  0  0  0
   93.3836   47.6930   72.1816 N   0  0  0  0  0  0  0  0  0  0  0  0
   99.3283   46.4315   75.8156 P   0  0  0  0  0  4  0  0  0  0  0  0
   96.0182   47.0542   76.1579 O   0  0  0  0  0  0  0  0  0  0  0  0
   95.7236   50.0796   73.0869 C   0  0  1  0  0  0  0  0  0  0  0  0
   99.5184   47.0019   75.1718 O   0  0  0  0  0  1  0  0  0  0  0  0
   99.4379   46.4440   77.0313 O   0  0  0  0  0  0  0  0  0  0  0  0
   95.5646   48.5490   72.3601 O   0  0  0  0  0  0  0  0  0  0  0  0
   91.4103   45.8009   72.1325 C   0  0  0  0  0  0  0  0  0  0  0  0
   93.9809   51.0432   71.2315 O   0  0  0  0  0  0  0  0  0  0  0  0
   96.8342   47.1868   75.0715 P   0  0  2  0  0  4  0  0  0  0  0  0
   96.8570   46.3962   74.1459 O   0  0  0  0  0  1  0  0  0  0  0  0
   99.0993   44.8553   75.4524 O   0  0  0  0  0  0  0  0  0  0  0  0
   91.0350   47.2961   70.5733 N   0  0  0  0  0  0  0  0  0  0  0  0
   94.6565   51.3470   73.4119 O   0  0  0  0  0  0  0  0  0  0  0  0
   96.8112   48.8877   72.9104 C   0  0  2  0  0  0  0  0  0  0  0  0
   97.4581   48.3244   74.9428 O   0  0  0  0  0  0  0  0  0  0  0  0
  3  1  1  0
  4  2  1  0
  6  5  1  0
  7  1  1  0
  7  5  1  0
 10  3  1  6
 11  8  1  0
 12  8  1  0
 13 10  1  0
 14  2  1  0
 14  4  2  0
 14  6  1  0
 15  3  1  0
 16  8  1  0
 16  9  1  1
 17 16  1  0
 18  8  1  0
 19  2  2  3
 20  3  1  0
 21 10  1  0
 21 13  1  0
 22 16  1  0
 21 22  1  1
M  RAD  4   8   2  11   2  16   2  17   2
M  END
>  <ID>  (1) 
conformer_0

$$$$
