
     RDKit          3D

 24 25  0  0  0  0  0  0  0  0999 V2000
   97.0560   49.3735   73.3517 C   0  0  0  0  0  0  0  0  0  0  0  0
   90.5252   46.9596   70.6673 C   0  0  0  0  0  0  0  0  0  0  0  0
   96.1499   50.1948   73.3660 C   0  0  0  0  0  0  0  0  0  0  0  0
   92.3479   47.1263   71.6868 C   0  0  0  0  0  3  0  0  0  0  0  0
   90.0196   46.0577   71.1417 N   0  0  0  0  0  0  0  0  0  0  0  0
   93.5784   48.0338   72.1900 N   0  0  0  0  0  0  0  0  0  0  0  0
   92.8223   46.1569   73.1425 N   0  0  0  0  0  0  0  0  0  0  0  0
   99.0698   46.0674   76.0523 P   0  0  0  0  0  0  0  0  0  0  0  0
   96.0669   47.1401   76.1973 O   0  0  0  0  0  0  0  0  0  0  0  0
   99.6876   46.7372   76.9198 O   0  0  0  0  0  0  0  0  0  0  0  0
   91.2364   45.8510   72.3130 C   0  0  0  0  0  0  0  0  0  0  0  0
   90.5418   44.4089   72.7506 N   0  0  0  0  0  0  0  0  0  0  0  0
   98.5238   46.7510   75.3000 O   0  0  0  0  0  0  0  0  0  0  0  0
   95.0764   49.9773   72.2354 C   0  0  0  0  0  0  0  0  0  0  0  0
   95.9929   51.4310   72.1316 O   0  0  0  0  0  0  0  0  0  0  0  0
   91.7486   47.5443   70.5581 N   0  0  0  0  0  0  0  0  0  0  0  0
   97.0854   48.4167   74.5856 O   0  0  0  0  0  0  0  0  0  0  0  0
   96.2760   46.0530   74.1940 O   0  0  0  0  0  1  0  0  0  0  0  0
   98.7524   44.8599   75.8446 O   0  0  0  0  0  0  0  0  0  0  0  0
   93.4018   47.1576   72.9455 C   0  0  0  0  0  0  0  0  0  0  0  0
   96.8201   47.1379   75.1103 P   0  0  0  0  0  4  0  0  0  0  0  0
   95.4602   48.8517   72.8765 O   0  0  0  0  0  0  0  0  0  0  0  0
   94.3882   50.8104   71.1253 O   0  0  0  0  0  0  0  0  0  0  0  0
   94.2154   49.4360   71.9336 C   0  0  0  0  0  0  0  0  0  0  0  0
  3  1  1  0
  5  2  2  0
 10  8  1  0
 11  4  1  0
 11  5  1  0
 11  7  1  0
 12 11  1  0
 13  8  1  0
 15 14  1  0
 16  2  1  0
 16  4  1  0
 17  1  1  0
 19  8  1  0
 20  4  1  0
 20  6  1  0
 20  7  2  0
 21  9  1  0
 21 13  1  0
 21 17  1  0
 21 18  1  0
 22  3  1  0
 22 14  1  0
 23 14  1  0
 24  6  1  0
 24 14  1  0
M  RAD  3   4   2  18   2  21   2
M  END
>  <ID>  (1) 
conformer_0

$$$$
