
     RDKit          3D

 24 25  0  0  0  0  0  0  0  0999 V2000
   94.0111   49.2609   71.8703 C   0  0  1  0  0  0  0  0  0  0  0  0
   90.5400   46.8688   70.5259 C   0  0  0  0  0  0  0  0  0  0  0  0
   94.3847   50.0988   72.4490 C   0  0  1  0  0  0  0  0  0  0  0  0
   89.9734   45.8480   70.9543 N   0  0  0  0  0  0  0  0  0  0  0  0
   93.1630   46.8475   72.8246 C   0  0  0  0  0  0  0  0  0  0  0  0
   92.6840   45.8471   73.1947 N   0  0  0  0  0  0  0  0  0  0  0  0
   95.5101   48.8646   71.5714 O   0  0  0  0  0  0  0  0  0  0  0  0
   99.5795   46.4190   76.1085 P   0  0  0  0  0  4  0  0  0  0  0  0
   93.4676   47.7421   72.2903 N   0  0  0  0  0  0  0  0  0  0  0  0
   96.1100   47.1012   76.1683 O   0  0  0  0  0  0  0  0  0  0  0  0
   99.9317   46.4392   76.9662 O   0  0  0  0  0  0  0  0  0  0  0  0
   95.8293   50.0106   72.9689 C   0  0  1  0  0  0  0  0  0  0  0  0
   94.8846   51.1131   73.9458 O   0  0  0  0  0  0  0  0  0  0  0  0
   90.9459   45.5438   72.3251 C   0  0  0  0  0  0  0  0  0  0  0  0
   96.8869   47.4566   74.1939 O   0  0  0  0  0  0  0  0  0  0  0  0
   91.3846   47.5365   70.5812 N   0  0  0  0  0  0  0  0  0  0  0  0
   90.3545   44.2297   72.6916 N   0  0  0  0  0  0  0  0  0  0  0  0
   93.3402   50.9201   71.8511 O   0  0  0  0  0  0  0  0  0  0  0  0
  100.0157   46.2516   74.9658 O   0  0  0  0  0  1  0  0  0  0  0  0
   98.5063   48.1727   75.8042 O   0  0  0  0  0  0  0  0  0  0  0  0
   98.1899   45.1924   75.9552 O   0  0  0  0  0  0  0  0  0  0  0  0
   97.1846   47.3169   75.2568 P   0  0  0  0  0  0  0  0  0  0  0  0
   92.0874   46.7745   71.8143 C   0  0  0  0  0  0  0  0  0  0  0  0
   96.9340   48.9196   73.1456 C   0  0  0  0  0  0  0  0  0  0  0  0
  3  1  1  0
  4  2  2  0
  6  5  2  3
  7  1  1  0
  1  9  1  1
  9  5  1  0
 11  8  1  0
 12  3  1  0
 12  7  1  0
 12 13  1  1
 14  4  1  0
 16  2  1  0
 17 14  1  0
  3 18  1  6
 19  8  1  0
 20  8  1  0
 21  8  1  0
 22 10  1  0
 22 15  1  0
 22 20  1  0
 23  5  1  0
 23 14  2  0
 23 16  1  0
 24 12  1  0
 24 15  1  0
M  RAD  2   8   2  19   2
M  END
>  <ID>  (1) 
conformer_0

$$$$
