
     RDKit          3D

 24 25  0  0  0  0  0  0  0  0999 V2000
   95.5176   50.2844   72.7464 C   0  0  0  0  0  0  0  0  0  0  0  0
   90.6382   46.6365   70.7316 C   0  0  0  0  0  0  0  0  0  0  0  0
   96.7491   49.4601   72.9438 C   0  0  0  0  0  0  0  0  0  0  0  0
   93.2314   46.9355   72.9283 C   0  0  0  0  0  0  0  0  0  0  0  0
   91.6676   47.3654   70.4514 N   0  0  0  0  0  0  0  0  0  0  0  0
   92.7214   46.0218   73.3668 N   0  0  0  0  0  0  0  0  0  0  0  0
   99.3482   45.9361   76.1673 P   0  0  0  0  0  4  0  0  0  0  0  0
   90.2896   44.4551   73.0137 N   0  0  0  0  0  0  0  0  0  0  0  0
   93.3789   47.7828   72.1876 N   0  0  0  0  0  0  0  0  0  0  0  0
   89.9595   45.9398   71.1593 N   0  0  0  0  0  0  0  0  0  0  0  0
   93.8706   50.1863   72.1866 C   0  0  1  0  0  0  0  0  0  0  0  0
   91.0150   45.7115   72.4877 C   0  0  0  0  0  0  0  0  0  0  0  0
   99.7445   46.1460   77.2654 O   0  0  0  0  0  0  0  0  0  0  0  0
   98.2277   47.2601   75.6642 O   0  0  0  0  0  0  0  0  0  0  0  0
   97.0451   48.2230   74.3248 O   0  0  0  0  0  0  0  0  0  0  0  0
   93.1763   50.9145   71.2763 O   0  0  0  0  0  0  0  0  0  0  0  0
  100.1416   46.0451   75.1358 O   0  0  0  0  0  1  0  0  0  0  0  0
   95.9802   46.7460   75.6967 O   0  0  0  0  0  0  0  0  0  0  0  0
   94.8312   51.5689   72.7827 O   0  0  0  0  0  0  0  0  0  0  0  0
   97.3604   47.4021   75.0166 P   0  0  0  0  0  0  0  0  0  0  0  0
   98.4937   44.6141   76.1926 O   0  0  0  0  0  0  0  0  0  0  0  0
   92.2244   46.8943   71.7993 C   0  0  0  0  0  0  0  0  0  0  0  0
   95.4422   48.7862   72.4577 O   0  0  0  0  0  0  0  0  0  0  0  0
   94.2814   49.2137   71.6542 C   0  0  1  0  0  0  0  0  0  0  0  0
  3  1  1  0
  5  2  2  0
  6  4  2  3
  9  4  1  0
 10  2  1  0
 11  1  1  0
 12  8  1  0
 12 10  1  0
 13  7  1  0
 14  7  1  0
 15  3  1  0
 11 16  1  6
 17  7  1  0
 19  1  1  0
 20 14  1  0
 20 15  1  0
 20 18  1  0
 21  7  1  0
 22  4  1  0
 22  5  1  0
 22 12  2  0
 23  1  1  0
 24  9  1  1
 24 11  1  0
 24 23  1  0
M  RAD  2   7   2  17   2
M  END
>  <ID>  (1) 
conformer_0

$$$$
