
     RDKit          3D

 25 26  0  0  0  0  0  0  0  0999 V2000
   94.0620   49.2740   71.4862 C   0  0  0  0  0  0  0  0  0  0  0  0
   90.6553   46.4972   70.7870 C   0  0  0  0  0  0  0  0  0  0  0  0
   94.3909   50.1083   72.2875 C   0  0  0  0  0  0  0  0  0  0  0  0
   93.4060   46.9156   72.6871 C   0  0  0  0  0  0  0  0  0  0  0  0
   90.0643   45.6749   71.1725 N   0  0  0  0  0  0  0  0  0  0  0  0
   99.9584   46.6813   76.8812 O   0  0  0  0  0  0  0  0  0  0  0  0
   97.2368   47.6742   75.2430 P   0  0  0  0  0  0  0  0  0  0  0  0
   95.5831   50.0744   73.0386 C   0  0  0  0  0  0  0  0  0  0  0  0
   93.4656   47.7386   72.0788 N   0  0  0  0  0  0  0  0  0  0  0  0
   97.5917   46.6045   75.1318 O   0  0  0  0  0  0  0  0  0  0  0  0
   90.6799   44.1782   72.9674 N   0  0  0  0  0  0  0  0  0  0  0  0
   95.7531   48.6660   71.7315 O   0  0  0  0  0  0  0  0  0  0  0  0
   93.0416   45.8401   73.0380 N   0  0  0  0  0  0  0  0  0  0  0  0
   91.3028   45.5340   72.3994 C   0  0  0  0  0  0  0  0  0  0  0  0
   96.0006   47.4421   76.3715 O   0  0  0  0  0  0  0  0  0  0  0  0
  100.1012   46.1911   74.6893 O   0  0  0  0  0  0  0  0  0  0  0  0
   94.5116   51.1754   73.5253 O   0  0  0  0  0  0  0  0  0  0  0  0
   93.7869   50.5206   70.8154 O   0  0  0  0  0  0  0  0  0  0  0  0
   91.4435   47.3654   70.5227 N   0  0  0  0  0  0  0  0  0  0  0  0
   99.0313   44.8751   75.9633 O   0  0  0  0  0  0  0  0  0  0  0  0
   99.5515   46.2095   75.9527 P   0  0  0  0  0  5  0  0  0  0  0  0
   92.3738   46.8761   71.7864 C   0  0  0  0  0  0  0  0  0  0  0  0
   96.8697   49.2512   73.0804 C   0  0  0  0  0  0  0  0  0  0  0  0
   98.4618   48.7089   75.5443 O   0  0  0  0  0  0  0  0  0  0  0  0
   96.6379   48.3604   74.0899 O   0  0  0  0  0  0  0  0  0  0  0  0
  3  1  1  0
  5  2  1  0
  8  3  2  0
  9  1  1  0
  9  4  1  0
 10  7  1  0
 12  1  1  0
 13  4  2  0
 14  5  2  0
 14 11  1  0
 14 13  1  0
 15  7  1  0
 17  8  1  0
 18  1  1  0
 19  2  1  0
 21  6  1  0
 21 10  1  0
 21 16  1  0
 21 20  1  0
 22  4  1  0
 22 19  1  0
 23  8  1  0
 23 12  1  0
 24 21  1  0
 25  7  1  0
 25 23  1  0
M  END
>  <ID>  (1) 
conformer_0

$$$$
