
     RDKit          3D

 27 27  0  0  0  0  0  0  0  0999 V2000
   93.8873   49.2385   71.7543 C   0  0  0  0  0  0  0  0  0  0  0  0
   90.2386   46.7677   70.6274 C   0  0  0  0  0  0  0  0  0  0  0  0
   94.1288   50.1609   72.6615 C   0  0  0  0  0  0  0  0  0  0  0  0
   89.7638   45.8277   71.0416 N   0  0  0  0  0  0  0  0  0  0  0  0
   93.0340   46.9025   72.5376 C   0  0  0  0  0  0  0  0  0  0  0  0
   93.1537   47.7835   72.0283 N   0  0  0  0  0  0  0  0  0  0  0  0
   95.4880   49.8866   72.8904 C   0  0  0  0  0  0  0  0  0  0  0  0
   99.3846   46.1539   75.9807 P   0  0  0  0  0  5  0  0  0  0  0  0
   95.3368   48.5326   71.8714 O   0  0  0  0  0  0  0  0  0  0  0  0
   92.5053   45.8651   72.8884 N   0  0  0  0  0  0  0  0  0  0  0  0
   96.1402   46.7401   76.0699 O   0  0  0  0  0  0  0  0  0  0  0  0
   89.9238   44.4635   72.7744 N   0  0  0  0  0  0  0  0  0  0  0  0
   98.8657   47.0492   75.2558 O   0  0  0  0  0  0  0  0  0  0  0  0
  100.1436   46.1627   76.9108 O   0  0  0  0  0  0  0  0  0  0  0  0
   92.6794   50.7665   71.7935 O   0  0  0  0  0  0  0  0  0  0  0  0
   99.0256   48.8172   76.1388 O   0  0  0  0  0  0  0  0  0  0  0  0
   90.7347   45.7539   72.3534 C   0  0  0  0  0  0  0  0  0  0  0  0
   96.8315   48.3567   74.0776 O   0  0  0  0  0  0  0  0  0  0  0  0
   94.3286   51.2468   73.8182 O   0  0  0  0  0  0  0  0  0  0  0  0
   91.0838   47.4703   70.5707 N   0  0  0  0  0  0  0  0  0  0  0  0
   97.1891   47.0581   75.0191 P   0  0  0  0  0  4  0  0  0  0  0  0
   94.8399   51.2624   71.3670 O   0  0  0  0  0  0  0  0  0  0  0  0
   96.9284   49.2691   73.1065 C   0  0  0  0  0  0  0  0  0  0  0  0
   91.8958   46.9937   71.6556 C   0  0  0  0  0  0  0  0  0  0  0  0
   98.5159   44.8845   76.4497 O   0  0  0  0  0  0  0  0  0  0  0  0
   96.9082   46.1155   74.1276 O   0  0  0  0  0  1  0  0  0  0  0  0
   99.2114   44.8936   74.6536 O   0  0  0  0  0  0  0  0  0  0  0  0
  3  1  1  0
  4  2  1  0
  6  1  1  0
  6  5  1  0
  9  1  1  0
  9  7  1  0
 10  5  2  0
 13  8  1  0
 14  8  1  0
 15  3  1  0
 16  8  1  0
 17  4  2  0
 17 10  1  0
 17 12  1  0
 19  3  1  0
 20  2  2  0
 21 11  1  0
 21 13  1  0
 21 18  1  0
 22  3  1  0
 23  7  1  0
 23 18  1  0
 24  5  1  0
 24 20  1  0
 25  8  1  0
 26 21  1  0
 27  8  1  0
M  RAD  2  21   2  26   2
M  END
>  <ID>  (1) 
conformer_0

$$$$
