
     RDKit          3D

 23 25  0  0  0  0  0  0  0  0999 V2000
   90.0012   46.9312   70.5930 C   0  0  0  0  0  0  0  0  0  0  0  0
   96.4068   49.6038   73.7623 C   0  0  0  0  0  0  0  0  0  0  0  0
   95.5455   50.2922   72.9474 C   0  0  0  0  0  0  0  0  0  0  0  0
   91.7832   46.8775   71.4782 C   0  0  0  0  0  3  0  0  0  0  0  0
   89.7565   45.8933   71.1557 N   0  0  0  0  0  0  0  0  0  0  0  0
   99.3601   46.2232   75.8631 P   0  0  0  0  0  5  0  0  0  0  0  0
   92.5788   45.7983   72.8724 N   0  0  0  0  0  0  0  0  0  0  0  0
   94.4044   50.0312   72.1765 C   0  0  0  0  0  0  0  0  0  0  0  0
   93.2089   47.6925   72.1277 N   0  0  0  0  0  0  0  0  0  0  0  0
   96.2662   46.6091   76.1563 O   0  0  0  0  0  0  0  0  0  0  0  0
   97.6716   47.7569   74.9810 O   0  0  0  0  0  0  0  0  0  0  0  0
   90.8577   45.5590   72.2159 C   0  0  0  0  0  0  0  0  0  0  0  0
   90.4577   44.2116   72.8237 N   0  0  0  0  0  0  0  0  0  0  0  0
   96.6088   46.9117   75.0210 P   0  0  0  0  0  0  0  0  0  0  0  0
   94.0617   51.1073   71.3562 O   0  0  0  0  0  0  0  0  0  0  0  0
   99.3459   44.4406   75.8821 O   0  0  0  0  0  0  0  0  0  0  0  0
   95.3066   48.5698   73.5398 O   0  0  0  0  0  0  0  0  0  0  0  0
   99.8491   46.5261   75.1888 O   0  0  0  0  0  0  0  0  0  0  0  0
   91.2519   47.6755   70.5587 N   0  0  0  0  0  0  0  0  0  0  0  0
   96.5807   46.2472   73.9425 O   0  0  0  0  0  0  0  0  0  0  0  0
   94.2183   49.0138   71.6500 C   0  0  0  0  0  0  0  0  0  0  0  0
   92.9757   46.8614   72.6888 C   0  0  0  0  0  0  0  0  0  0  0  0
   99.2484   46.1597   77.0960 O   0  0  0  0  0  0  0  0  0  0  0  0
  3  2  1  0
  5  1  2  0
  8  3  1  0
 11  6  1  0
 12  4  1  0
 12  5  1  0
 12  7  1  0
 13 12  1  0
 14  2  1  0
 14 10  1  0
 15  8  1  0
 16  6  1  0
 17  2  1  0
 17  3  1  0
 18  6  1  0
 19  1  1  0
 19  4  1  0
 20  6  1  0
 20 14  1  0
 21  8  1  0
 21  9  1  0
 22  4  1  0
 22  7  2  0
 22  9  1  0
 23  6  1  0
M  RAD  1   4   2
M  END
>  <ID>  (1) 
conformer_0

$$$$
