
     RDKit          3D

 27 28  0  0  0  0  0  0  0  0999 V2000
   90.4048   47.0086   70.2885 C   0  0  0  0  0  0  0  0  0  0  0  0
   96.8536   49.2213   73.2527 C   0  0  0  0  0  0  0  0  0  0  0  0
   95.9220   50.2151   73.3036 C   0  0  0  0  0  0  0  0  0  0  0  0
   93.6845   47.0054   73.1731 C   0  0  0  0  0  0  0  0  0  0  0  0
   91.6485   47.6160   70.6033 N   0  0  0  0  0  0  0  0  0  0  0  0
   93.5739   47.7762   72.3668 N   0  0  0  0  0  0  0  0  0  0  0  0
   99.5805   46.1841   75.9467 P   0  0  0  0  0  4  0  0  0  0  0  0
   92.6566   45.9279   73.2723 N   0  0  0  0  0  0  0  0  0  0  0  0
   96.1940   46.7214   76.1777 O   0  0  0  0  0  0  0  0  0  0  0  0
   99.9456   46.6774   76.9275 O   0  0  0  0  0  0  0  0  0  0  0  0
   95.8846   51.5076   74.1335 O   0  0  0  0  0  0  0  0  0  0  0  0
   94.6338   50.0579   72.4409 C   0  0  0  0  0  0  0  0  0  0  0  0
   93.3281   50.5875   71.1859 O   0  0  0  0  0  0  0  0  0  0  0  0
   95.3570   48.8181   72.2134 O   0  0  0  0  0  0  0  0  0  0  0  0
   98.3935   47.1485   75.2797 O   0  0  0  0  0  0  0  0  0  0  0  0
  100.4235   46.0060   74.7882 O   0  0  0  0  0  1  0  0  0  0  0  0
   90.6349   45.8020   72.0192 C   0  0  0  0  0  0  0  0  0  0  0  0
   90.0603   45.9552   71.0717 N   0  0  0  0  0  0  0  0  0  0  0  0
   90.5865   44.3333   72.6426 N   0  0  0  0  0  0  0  0  0  0  0  0
   97.0733   46.9319   75.0396 P   0  0  0  0  0  4  0  0  0  0  0  0
   98.7787   44.8426   76.0667 O   0  0  0  0  0  0  0  0  0  0  0  0
   92.3121   47.3336   71.4030 C   0  0  0  0  0  0  0  0  0  0  0  0
   96.6246   48.4566   74.2332 O   0  0  0  0  0  0  0  0  0  0  0  0
   94.1582   49.2812   71.9421 C   0  0  0  0  0  0  0  0  0  0  0  0
   96.5322   46.2528   74.0505 O   0  0  0  0  0  1  0  0  0  0  0  0
   94.8686   51.4535   71.8688 O   0  0  0  0  0  0  0  0  0  0  0  0
   92.1365   46.2083   72.4416 C   0  0  0  0  0  0  0  0  0  0  0  0
  3  2  1  0
  5  1  2  0
  6  4  1  0
  8  4  2  0
 10  7  1  0
 11  3  1  0
 12  3  1  0
 15  7  1  0
 16  7  1  0
 18  1  1  0
 18 17  2  0
 19 17  1  0
 20  9  1  0
 20 15  1  0
 21  7  1  0
 22  5  1  0
 22  6  1  0
 23  2  1  0
 23 20  1  0
 24  6  1  0
 24 12  1  0
 24 13  1  0
 24 14  1  0
 25 20  1  0
 26 12  1  0
 27  8  1  0
 27 17  1  0
 27 22  2  0
M  RAD  4   7   2  16   2  20   2  25   2
M  END
>  <ID>  (1) 
conformer_0

$$$$
