
     RDKit          3D

 25 26  0  0  0  0  0  0  0  0999 V2000
   94.0536   49.5057   71.8595 C   0  0  2  0  0  0  0  0  0  0  0  0
   90.4433   47.3498   70.4515 C   0  0  0  0  0  0  0  0  0  0  0  0
   94.2166   50.3108   72.6235 C   0  0  0  0  0  0  0  0  0  0  0  0
   92.0445   47.0445   71.6426 C   0  0  0  0  0  0  0  0  0  0  0  0
   89.8438   46.0669   70.8758 N   0  0  0  0  0  0  0  0  0  0  0  0
   92.6924   45.8388   72.9391 N   0  0  0  0  0  0  0  0  0  0  0  0
   97.0997   48.8562   73.1100 C   0  0  0  0  0  0  0  0  0  0  0  0
   93.3958   47.9337   72.0382 N   0  0  0  0  0  0  0  0  0  0  0  0
   99.7466   46.0749   76.0629 P   0  0  0  0  0  5  0  0  0  0  0  0
   95.3051   49.1262   71.3841 O   0  0  0  0  0  0  0  0  0  0  0  0
   96.0459   47.2475   76.1374 O   0  0  0  0  0  0  0  0  0  0  0  0
   90.9719   45.7364   71.9781 C   0  0  0  0  0  0  0  0  0  0  0  0
   95.0499   51.3674   73.8530 O   0  0  0  0  0  0  0  0  0  0  0  0
   99.4504   47.0674   75.3697 O   0  0  0  0  0  0  0  0  0  0  0  0
   90.4008   44.3116   72.4501 N   0  0  0  0  0  0  0  0  0  0  0  0
   99.2868   46.1685   77.3140 O   0  0  0  0  0  0  0  0  0  0  0  0
   91.2617   47.9409   70.5276 N   0  0  0  0  0  0  0  0  0  0  0  0
   97.1649   45.5857   75.4039 O   0  0  0  0  0  1  0  0  0  0  0  0
   93.1668   51.1639   72.0087 O   0  0  0  0  0  0  0  0  0  0  0  0
   97.1708   47.6173   74.1567 O   0  0  0  0  0  0  0  0  0  0  0  0
   97.1991   46.7544   75.2040 P   0  0  1  0  0  4  0  0  0  0  0  0
   99.4909   44.4566   75.3766 O   0  0  0  0  0  0  0  0  0  0  0  0
   95.8499   49.9835   72.7212 C   0  0  1  0  0  0  0  0  0  0  0  0
   93.1984   46.8918   72.6207 C   0  0  0  0  0  0  0  0  0  0  0  0
  101.1749   45.8169   76.4165 O   0  0  0  0  0  0  0  0  0  0  0  0
  3  1  1  0
  5  2  2  0
  1  8  1  1
 10  1  1  0
 12  4  2  0
 12  5  1  0
 13  3  1  0
 14  9  1  0
 15 12  1  0
 16  9  1  0
 17  2  1  0
 17  4  1  0
 19  3  1  0
 20  7  1  0
 21 11  1  1
 21 14  1  0
 21 18  1  0
 21 20  1  0
 22  9  1  0
 23  3  1  0
 23  7  1  1
 23 10  1  0
 24  4  1  0
 24  6  2  3
 24  8  1  0
 25  9  1  0
M  RAD  2  18   2  21   2
M  END
>  <ID>  (1) 
conformer_0

$$$$
