
     RDKit          3D

 23 24  0  0  0  0  0  0  0  0999 V2000
   92.3126   46.8445   72.0279 C   0  0  2  0  0  0  0  0  0  0  0  0
   94.1116   49.2060   71.8728 C   0  0  1  0  0  0  0  0  0  0  0  0
   94.4082   50.0967   72.4985 C   0  0  1  0  0  0  0  0  0  0  0  0
   93.5519   46.6726   72.9194 C   0  0  0  0  0  0  0  0  0  0  0  0
   91.4980   47.8110   70.8245 N   0  0  0  0  0  0  0  0  0  0  0  0
   92.9432   45.7405   73.1815 N   0  0  0  0  0  0  0  0  0  0  0  0
   97.4016   47.3867   75.0740 P   0  0  0  0  0  0  0  0  0  0  0  0
   95.4940   48.6386   71.8149 O   0  0  0  0  0  0  0  0  0  0  0  0
   93.5772   47.6930   72.2529 N   0  0  0  0  0  0  0  0  0  0  0  0
   90.3685   44.2565   72.8122 N   0  0  0  0  0  0  0  0  0  0  0  0
   96.7952   48.6860   72.9052 C   0  0  2  0  0  0  0  0  0  0  0  0
   99.5653   46.4017   76.7473 O   0  0  0  0  0  0  0  0  0  0  0  0
   97.1609   47.4532   74.2868 O   0  0  0  0  0  0  0  0  0  0  0  0
   91.1277   45.6052   72.4033 C   0  0  0  0  0  0  0  0  0  0  0  0
   96.3319   46.7767   76.1593 O   0  0  0  0  0  0  0  0  0  0  0  0
   90.0366   46.0812   71.2144 N   0  0  0  0  0  0  0  0  0  0  0  0
   95.4191   51.4779   73.4717 O   0  0  0  0  0  0  0  0  0  0  0  0
   99.4106   46.2366   74.6271 O   0  0  0  0  0  1  0  0  0  0  0  0
   98.4433   48.6774   75.7479 O   0  0  0  0  0  0  0  0  0  0  0  0
   90.6763   46.9947   70.9933 C   0  0  0  0  0  0  0  0  0  0  0  0
   95.9205   50.0273   73.0031 C   0  0  2  0  0  0  0  0  0  0  0  0
   93.8377   51.1129   71.9056 O   0  0  0  0  0  0  0  0  0  0  0  0
   99.4419   46.6078   75.8345 P   0  0  1  0  0  4  0  0  0  0  0  0
  3  2  1  0
  4  1  1  0
  6  4  2  3
  8  2  1  0
  1  9  1  1
  2  9  1  1
  9  4  1  0
 11  8  1  0
 13  7  1  0
 11 13  1  1
 14  1  1  0
 14 10  2  3
 15  7  1  0
 16 14  1  0
 19  7  1  0
 20  5  3  0
 20 16  1  0
 21  3  1  0
 21 11  1  0
 21 17  1  1
  3 22  1  6
 23 12  1  1
 23 18  1  0
 23 19  1  0
M  RAD  2  18   2  23   2
M  END
>  <ID>  (1) 
conformer_0

$$$$
