
     RDKit          3D

 26 27  0  0  0  0  0  0  0  0999 V2000
   90.8340   46.4584   70.4177 C   0  0  0  0  0  0  0  0  0  0  0  0
   94.4004   50.1248   72.8058 C   0  0  0  0  0  0  0  0  0  0  0  0
   94.0696   49.2530   72.0875 C   0  0  0  0  0  0  0  0  0  0  0  0
   93.3565   46.8486   72.9367 C   0  0  0  0  0  0  0  0  0  0  0  0
   90.0705   45.7175   71.1242 N   0  0  0  0  0  0  0  0  0  0  0  0
   93.4577   47.7806   72.2665 N   0  0  0  0  0  0  0  0  0  0  0  0
   92.8241   45.8507   73.1542 N   0  0  0  0  0  0  0  0  0  0  0  0
   95.4120   48.6453   71.8513 O   0  0  0  0  0  0  0  0  0  0  0  0
   99.2059   46.3816   75.9626 P   0  0  0  0  0  4  0  0  0  0  0  0
   98.3844   44.9085   75.5651 O   0  0  0  0  0  0  0  0  0  0  0  0
   96.0126   49.9593   73.0546 C   0  0  0  0  0  0  0  0  0  0  0  0
   90.5230   44.1727   72.8046 N   0  0  0  0  0  0  0  0  0  0  0  0
   96.2388   46.8024   76.1614 O   0  0  0  0  0  0  0  0  0  0  0  0
   98.3536   47.6294   75.2809 O   0  0  0  0  0  0  0  0  0  0  0  0
   91.1881   45.4861   72.3622 C   0  0  0  0  0  0  0  0  0  0  0  0
   93.1077   50.8076   73.3665 O   0  0  0  0  0  0  0  0  0  0  0  0
  100.4508   46.2636   75.6370 O   0  0  0  0  0  1  0  0  0  0  0  0
   91.8817   47.1147   70.5253 N   0  0  0  0  0  0  0  0  0  0  0  0
   94.8380   51.1732   71.4533 O   0  0  0  0  0  0  0  0  0  0  0  0
   96.5552   46.2335   74.0578 O   0  0  0  0  0  1  0  0  0  0  0  0
   98.9938   46.4257   77.0666 O   0  0  0  0  0  0  0  0  0  0  0  0
   96.9060   47.1346   75.1677 P   0  0  0  0  0  4  0  0  0  0  0  0
   96.9103   48.8393   72.9518 C   0  0  0  0  0  0  0  0  0  0  0  0
   92.3151   46.9120   71.7559 C   0  0  0  0  0  0  0  0  0  0  0  0
   96.5257   48.4645   74.1423 O   0  0  0  0  0  0  0  0  0  0  0  0
   95.2451   51.4654   73.7293 O   0  0  0  0  0  0  0  0  0  0  0  0
  3  2  1  0
  5  1  1  0
  6  3  1  0
  6  4  1  0
  7  4  1  0
  8  3  1  0
 10  9  1  0
 11  2  1  0
 14  9  1  0
 15  5  2  0
 15  7  1  0
 15 12  1  0
 16  2  1  0
 17  9  1  0
 18  1  2  0
 19  2  1  0
 21  9  1  0
 22 13  1  0
 22 14  1  0
 22 20  1  0
 23  8  1  0
 23 11  1  0
 24  6  1  0
 24 18  1  0
 25 22  1  0
 25 23  1  0
 26 11  1  0
M  RAD  4   9   2  17   2  20   2  22   2
M  END
>  <ID>  (1) 
conformer_0

$$$$
