
     RDKit          3D

 26 27  0  0  0  0  0  0  0  0999 V2000
   94.0877   50.1060   72.2173 C   0  0  0  0  0  0  0  0  0  0  0  0
   90.1396   46.8634   70.9499 C   0  0  0  0  0  0  0  0  0  0  0  0
   95.4274   50.1439   72.8222 C   0  0  0  0  0  0  0  0  0  0  0  0
   92.0419   47.0463   71.7869 C   0  0  0  0  0  3  0  0  0  0  0  0
   89.8224   45.7219   71.3993 N   0  0  0  0  0  0  0  0  0  0  0  0
   93.2547   47.6826   72.1743 N   0  0  0  0  0  0  0  0  0  0  0  0
   92.7902   45.6490   72.9407 N   0  0  0  0  0  0  0  0  0  0  0  0
   99.4044   46.1984   76.0344 P   0  0  0  0  0  5  0  0  0  0  0  0
   96.0354   47.2586   76.2217 O   0  0  0  0  0  0  0  0  0  0  0  0
   90.7504   44.0437   72.7420 N   0  0  0  0  0  0  0  0  0  0  0  0
  100.0566   46.5365   76.9783 O   0  0  0  0  0  0  0  0  0  0  0  0
   93.5853   51.1181   71.2748 O   0  0  0  0  0  0  0  0  0  0  0  0
   94.8865   51.3280   73.7580 O   0  0  0  0  0  0  0  0  0  0  0  0
   96.4808   49.2997   72.7949 C   0  0  0  0  0  0  0  0  0  0  0  0
   91.1727   45.5659   72.2912 C   0  0  0  0  0  0  0  0  0  0  0  0
   94.9704   48.7373   71.7817 O   0  0  0  0  0  0  0  0  0  0  0  0
   98.1747   46.6153   74.9651 O   0  0  0  0  0  0  0  0  0  0  0  0
  100.3742   45.7285   74.9671 O   0  0  0  0  0  0  0  0  0  0  0  0
   98.7528   48.5098   75.9329 O   0  0  0  0  0  0  0  0  0  0  0  0
   90.9818   47.6202   70.8932 N   0  0  0  0  0  0  0  0  0  0  0  0
   96.9932   47.2533   75.1535 P   0  0  0  0  0  4  0  0  0  0  0  0
   98.8532   44.7845   76.3475 O   0  0  0  0  0  0  0  0  0  0  0  0
   93.2524   46.7346   72.7319 C   0  0  0  0  0  0  0  0  0  0  0  0
   96.5566   48.3548   74.1089 O   0  0  0  0  0  0  0  0  0  0  0  0
   95.9348   46.1537   74.1874 O   0  0  0  0  0  1  0  0  0  0  0  0
   93.7845   49.2469   71.7006 C   0  0  0  0  0  0  0  0  0  0  0  0
  3  1  1  0
  5  2  2  0
  6  4  1  0
 11  8  1  0
 12  1  1  0
 13  3  1  0
 14  3  1  0
 15  4  1  0
 15  5  1  0
 15  7  1  0
 15 10  1  0
 17  8  1  0
 18  8  1  0
 19  8  1  0
 20  2  1  0
 20  4  1  0
 21  9  1  0
 21 17  1  0
 22  8  1  0
 23  6  1  0
 23  7  2  0
 24 14  1  0
 24 21  1  0
 25 21  1  0
 26  1  1  0
 26  6  1  0
 26 16  1  0
M  RAD  3   4   2  21   2  25   2
M  END
>  <ID>  (1) 
conformer_0

$$$$
