
     RDKit          3D

 26 26  0  0  0  0  0  0  0  0999 V2000
   96.9601   48.9690   73.0345 C   0  0  0  0  0  0  0  0  0  0  0  0
   90.2911   46.9633   70.5747 C   0  0  0  0  0  0  0  0  0  0  0  0
   96.5077   50.1455   73.6296 C   0  0  0  0  0  0  0  0  0  0  0  0
   92.0752   46.7677   71.6480 C   0  0  0  0  0  0  0  0  0  0  0  0
   89.7792   45.9728   71.1323 N   0  0  0  0  0  0  0  0  0  0  0  0
   92.7323   45.7178   72.9478 N   0  0  0  0  0  0  0  0  0  0  0  0
   96.0259   47.0498   76.2468 O   0  0  0  0  0  0  0  0  0  0  0  0
   93.5680   47.6221   72.0486 N   0  0  0  0  0  0  0  0  0  0  0  0
   96.7065   47.0033   75.1306 P   0  0  0  0  0  0  0  0  0  0  0  0
   90.9208   45.6503   72.2485 C   0  0  0  0  0  0  0  0  0  0  0  0
   91.4165   47.5657   70.6696 N   0  0  0  0  0  0  0  0  0  0  0  0
   95.4602   50.6748   72.5618 C   0  0  2  0  0  0  0  0  0  0  0  0
   99.4073   46.7583   77.1314 O   0  0  0  0  0  0  0  0  0  0  0  0
   90.0871   44.5052   72.8802 N   0  0  0  0  0  0  0  0  0  0  0  0
   95.3472   48.7696   71.6874 O   0  0  0  0  0  0  0  0  0  0  0  0
   96.1513   48.3789   74.0566 O   0  0  0  0  0  0  0  0  0  0  0  0
   93.8525   51.2297   71.7092 O   0  0  0  0  0  0  0  0  0  0  0  0
   98.1824   47.4431   75.1219 O   0  0  0  0  0  0  0  0  0  0  0  0
   95.0283   51.6926   73.8417 O   0  0  0  0  0  0  0  0  0  0  0  0
   99.0117   44.6628   76.3206 O   0  0  0  0  0  0  0  0  0  0  0  0
  100.1602   46.0430   75.2014 O   0  0  0  0  0  0  0  0  0  0  0  0
   99.1932   46.2049   75.9307 P   0  0  0  0  0  5  0  0  0  0  0  0
   96.6209   45.9636   74.2621 O   0  0  0  0  0  0  0  0  0  0  0  0
   93.3230   46.7421   72.5751 C   0  0  0  0  0  0  0  0  0  0  0  0
   94.3123   49.9884   72.5009 C   0  0  1  0  0  0  0  0  0  0  0  0
   94.3132   48.9227   71.6053 C   0  0  2  0  0  0  0  0  0  0  0  0
  3  1  1  0
  5  2  2  0
  9  7  1  0
 10  4  2  0
 10  5  1  0
 11  2  1  0
 11  4  1  0
 12  3  1  0
 14 10  1  0
 16  1  1  0
 16  9  1  0
 12 19  1  1
 22 13  1  0
 22 18  1  0
 22 20  1  0
 22 21  1  0
 23  9  1  0
 23 22  1  0
 24  4  1  0
 24  6  2  3
 24  8  1  0
 25 12  1  0
 25 17  1  6
 26  8  1  0
 26 15  1  1
 26 25  1  0
M  END
>  <ID>  (1) 
conformer_0

$$$$
