
     RDKit          3D

 28 29  0  0  0  0  0  0  0  0999 V2000
   94.6240   48.9828   71.8393 C   0  0  0  0  0  0  0  0  0  0  0  0
   90.5311   47.1744   70.0019 C   0  0  0  0  0  0  0  0  0  0  0  0
   93.7731   49.9404   71.9299 C   0  0  0  0  0  0  0  0  0  0  0  0
   91.7444   47.8353   70.4231 N   0  0  0  0  0  0  0  0  0  0  0  0
   93.5657   46.7244   73.0206 C   0  0  0  0  0  0  0  0  0  0  0  0
   92.5532   45.7558   73.0098 N   0  0  0  0  0  0  0  0  0  0  0  0
   95.8760   47.1024   76.1925 O   0  0  0  0  0  0  0  0  0  0  0  0
   96.1535   50.0473   73.3020 C   0  0  0  0  0  0  0  0  0  0  0  0
   96.9175   47.2256   75.3071 P   0  0  0  0  0  5  0  0  0  0  0  0
   95.3867   48.5877   71.9473 O   0  0  0  0  0  0  0  0  0  0  0  0
   99.7244   46.3161   77.0342 O   0  0  0  0  0  0  0  0  0  0  0  0
   98.0645   48.2965   75.9378 O   0  0  0  0  0  0  0  0  0  0  0  0
   90.0176   44.8366   72.5998 N   0  0  0  0  0  0  0  0  0  0  0  0
   90.0432   46.2947   70.7067 N   0  0  0  0  0  0  0  0  0  0  0  0
   93.4892   47.5541   72.2207 N   0  0  0  0  0  0  0  0  0  0  0  0
  100.5390   45.8442   75.0790 O   0  0  0  0  0  1  0  0  0  0  0  0
   95.3586   51.5461   73.7267 O   0  0  0  0  0  0  0  0  0  0  0  0
   93.4309   51.0163   71.6825 O   0  0  0  0  0  0  0  0  0  0  0  0
   90.5461   45.9488   71.8213 C   0  0  0  0  0  0  0  0  0  0  0  0
   98.7386   44.5071   75.7151 O   0  0  0  0  0  0  0  0  0  0  0  0
   96.1491   45.9474   74.1422 O   0  0  0  0  0  0  0  0  0  0  0  0
   99.2994   45.9870   75.9451 P   0  0  0  0  0  4  0  0  0  0  0  0
   96.9652   48.7544   72.9378 C   0  0  0  0  0  0  0  0  0  0  0  0
   96.5554   48.4079   74.0254 O   0  0  0  0  0  0  0  0  0  0  0  0
   91.9250   46.0884   72.1608 C   0  0  0  0  0  0  0  0  0  0  0  0
   92.3503   47.3918   71.3303 C   0  0  0  0  0  0  0  0  0  0  0  0
   98.3124   46.5468   74.9911 O   0  0  0  0  0  0  0  0  0  0  0  0
   94.6868   50.5173   73.0287 C   0  0  0  0  0  0  0  0  0  0  0  0
  3  1  1  0
  4  2  2  0
  6  5  2  0
  9  7  1  0
 10  1  2  0
 12  9  1  0
 14  2  1  0
 15  1  1  0
 15  5  1  0
 18  3  1  0
 19 13  1  0
 19 14  2  0
 21  9  1  0
 22 11  1  0
 22 16  1  0
 22 20  1  0
 23  8  1  0
 24  9  1  0
 24 23  1  0
 25  6  1  0
 25 19  1  0
 26  4  1  0
 26 15  1  0
 26 25  2  0
 27  9  1  0
 27 22  1  0
 28  3  1  0
 28  8  1  0
 28 17  1  0
M  RAD  2  16   2  22   2
M  END
>  <ID>  (1) 
conformer_0

$$$$
