
     RDKit          3D

 24 24  0  0  0  0  0  0  0  0999 V2000
   91.1716   45.8344   72.0549 C   0  0  0  0  0  0  0  0  0  0  0  0
   94.1531   49.3772   71.7801 C   0  0  2  0  0  0  0  0  0  0  0  0
   94.4093   50.2406   72.5225 C   0  0  1  0  0  0  0  0  0  0  0  0
   92.2125   47.0430   71.6450 C   0  0  0  0  0  0  0  0  0  0  0  0
   91.5149   47.8757   70.5145 N   0  0  0  0  0  0  0  0  0  0  0  0
   93.5398   47.8954   72.0743 N   0  0  0  0  0  0  0  0  0  0  0  0
   92.9067   45.9711   73.0301 N   0  0  0  0  0  0  0  0  0  0  0  0
   95.5246   49.0599   71.5839 O   0  0  0  0  0  0  0  0  0  0  0  0
   99.1941   45.8072   75.8931 P   0  0  0  0  0  4  0  0  0  0  0  0
   95.8500   47.3003   76.1781 O   0  0  0  0  0  0  0  0  0  0  0  0
   95.8615   50.0693   73.2105 C   0  0  1  0  0  0  0  0  0  0  0  0
   98.8909   44.3600   75.5327 O   0  0  0  0  0  0  0  0  0  0  0  0
   90.4910   44.4643   72.4857 N   0  0  0  0  0  0  0  0  0  0  0  0
   97.3091   47.9757   74.4900 O   0  0  0  0  0  0  0  0  0  0  0  0
   95.2617   51.3525   73.9531 O   0  0  0  0  0  0  0  0  0  0  0  0
   99.4207   46.5002   77.0395 O   0  0  0  0  0  0  0  0  0  0  0  0
   90.5333   47.2475   70.3878 C   0  0  0  0  0  0  0  0  0  0  0  0
  100.3206   46.0530   75.1145 O   0  0  0  0  0  1  0  0  0  0  0  0
   89.9954   46.1301   70.8278 N   0  0  0  0  0  0  0  0  0  0  0  0
   93.4425   51.0800   71.7948 O   0  0  0  0  0  0  0  0  0  0  0  0
   97.3918   46.0544   75.5148 O   0  0  0  0  0  0  0  0  0  0  0  0
   96.9422   47.1426   75.3563 P   0  0  0  0  0  0  0  0  0  0  0  0
   96.9482   49.0035   73.2015 C   0  0  0  0  0  0  0  0  0  0  0  0
   93.3829   46.9537   72.7445 C   0  0  0  0  0  0  0  0  0  0  0  0
  3  2  1  0
  4  1  2  0
  5  4  1  0
  6  2  1  0
  2  8  1  1
 11  3  1  0
 12  9  1  0
 13  1  1  0
 11 15  1  1
 16  9  1  0
 17  5  2  0
 18  9  1  0
 19  1  1  0
 19 17  1  0
  3 20  1  6
 21  9  1  0
 22 10  1  0
 22 14  1  0
 22 21  1  0
 23 11  1  0
 23 14  1  0
 24  4  1  0
 24  6  1  0
 24  7  2  3
M  RAD  2   9   2  18   2
M  END
>  <ID>  (1) 
conformer_0

$$$$
