
     RDKit          3D

 28 29  0  0  0  0  0  0  0  0999 V2000
   95.2104   50.1738   73.2493 C   0  0  0  0  0  0  0  0  0  0  0  0
   90.4543   47.1129   70.2714 C   0  0  0  0  0  0  0  0  0  0  0  0
   94.4179   50.0343   72.2088 C   0  0  0  0  0  0  0  0  0  0  0  0
   93.5265   46.7326   72.8982 C   0  0  0  0  0  0  0  0  0  0  0  0
   92.6451   45.7461   73.0604 N   0  0  0  0  0  0  0  0  0  0  0  0
   91.5736   47.6886   70.5449 N   0  0  0  0  0  0  0  0  0  0  0  0
   99.7008   46.4449   76.9418 O   0  0  0  0  0  0  0  0  0  0  0  0
   96.1581   47.2644   76.2646 O   0  0  0  0  0  0  0  0  0  0  0  0
   93.4606   47.6421   72.1396 N   0  0  0  0  0  0  0  0  0  0  0  0
   98.3121   49.4262   75.8703 O   0  0  0  0  0  0  0  0  0  0  0  0
   97.2222   47.9845   75.1816 P   0  0  0  0  0  0  0  0  0  0  0  0
   99.6489   45.3612   74.5734 O   0  0  0  0  0  0  0  0  0  0  0  0
   90.1575   44.3711   72.6698 N   0  0  0  0  0  0  0  0  0  0  0  0
   90.4131   45.6908   72.1412 C   0  0  0  0  0  0  0  0  0  0  0  0
   96.5378   48.7628   74.1941 O   0  0  0  0  0  0  0  0  0  0  0  0
   96.5226   49.7079   73.0872 C   0  0  0  0  0  0  0  0  0  0  0  0
   89.9093   46.0051   70.9471 N   0  0  0  0  0  0  0  0  0  0  0  0
   95.5423   51.3284   71.5984 O   0  0  0  0  0  0  0  0  0  0  0  0
   95.3689   48.4106   71.9180 O   0  0  0  0  0  0  0  0  0  0  0  0
   98.9132   45.9566   75.7277 P   0  0  0  0  0  7  0  0  0  0  0  0
   93.5646   50.9755   73.5917 O   0  0  0  0  0  0  0  0  0  0  0  0
   98.2367   45.0436   76.0856 O   0  0  0  0  0  0  0  0  0  0  0  0
   91.8154   45.8403   72.1466 C   0  0  0  0  0  0  0  0  0  0  0  0
   96.8154   46.2880   74.3468 O   0  0  0  0  0  0  0  0  0  0  0  0
   93.5233   50.7363   71.0806 O   0  0  0  0  0  0  0  0  0  0  0  0
   94.1879   48.8775   71.9420 C   0  0  0  0  0  0  0  0  0  0  0  0
   92.2594   47.3260   71.3903 C   0  0  0  0  0  0  0  0  0  0  0  0
   98.7983   47.5679   74.9197 O   0  0  0  0  0  0  0  0  0  0  0  0
  3  1  1  0
  5  4  2  0
  6  2  2  0
  9  4  1  0
 11  8  1  0
 14 13  1  0
 15 11  1  0
 16  1  1  0
 16 15  1  0
 17  2  1  0
 17 14  2  0
 18  3  1  0
 20  7  1  0
 20 10  1  0
 20 12  1  0
 21  1  1  0
 22 20  1  0
 23  5  1  0
 23 14  1  0
 24 20  1  0
 25  3  1  0
 26  3  1  0
 26  9  1  0
 26 19  2  0
 27  6  1  0
 27  9  1  0
 27 23  2  0
 28 11  1  0
 28 20  1  0
M  END
>  <ID>  (1) 
conformer_0

$$$$
