
     RDKit          3D

 24 25  0  0  0  0  0  0  0  0999 V2000
   95.6607   50.0578   73.0121 C   0  0  2  0  0  0  0  0  0  0  0  0
   90.5565   47.0009   70.5489 C   0  0  0  0  0  0  0  0  0  0  0  0
   96.8637   49.2878   72.9967 C   0  0  2  0  0  0  0  0  0  0  0  0
   93.2685   46.7192   72.8200 C   0  0  0  0  0  0  0  0  0  0  0  0
   92.6705   45.7593   73.1653 N   0  0  0  0  0  0  0  0  0  0  0  0
   91.6183   47.6599   70.5895 N   0  0  0  0  0  0  0  0  0  0  0  0
   95.6542   48.2521   72.0310 O   0  0  0  0  0  0  0  0  0  0  0  0
   89.8768   44.7137   72.9660 N   0  0  0  0  0  0  0  0  0  0  0  0
   99.4734   46.2008   76.0113 P   0  0  1  0  0  4  0  0  0  0  0  0
   96.6708   46.4683   76.0930 O   0  0  0  0  0  0  0  0  0  0  0  0
   94.6443   49.8459   72.0910 C   0  0  2  0  0  0  0  0  0  0  0  0
   90.7684   45.7021   72.3380 C   0  0  0  0  0  0  0  0  0  0  0  0
   93.5226   47.5540   72.2319 N   0  0  0  0  0  0  0  0  0  0  0  0
   97.1208   48.1497   74.3770 O   0  0  0  0  0  0  0  0  0  0  0  0
   99.3991   45.6338   76.6603 O   0  0  0  0  0  0  0  0  0  0  0  0
   94.1192   50.1236   70.3817 O   0  0  0  0  0  0  0  0  0  0  0  0
   89.8379   46.0953   71.0056 N   0  0  0  0  0  0  0  0  0  0  0  0
   95.6280   51.2618   73.7451 O   0  0  0  0  0  0  0  0  0  0  0  0
   99.2908   46.5370   74.8313 O   0  0  0  0  0  1  0  0  0  0  0  0
   98.7468   48.5072   76.0932 O   0  0  0  0  0  0  0  0  0  0  0  0
   93.5624   50.8442   72.4700 O   0  0  0  0  0  0  0  0  0  0  0  0
   92.0605   46.7419   71.8205 C   0  0  0  0  0  0  0  0  0  0  0  0
   94.3794   48.9199   71.6180 C   0  0  2  0  0  0  0  0  0  0  0  0
   97.5796   47.6897   75.2084 P   0  0  0  0  0  0  0  0  0  0  0  0
  3  1  1  0
  5  4  2  3
  6  2  2  0
  7  3  1  0
 11  1  1  0
 12  8  1  0
 13  4  1  0
  3 14  1  1
  9 15  1  1
 17  2  1  0
 17 12  1  0
  1 18  1  6
 19  9  1  0
 20  9  1  0
 11 21  1  1
 22  4  1  0
 22  6  1  0
 22 12  2  0
 23  7  1  0
 23 11  1  0
 23 13  1  0
 23 16  1  6
 24 10  1  0
 24 14  1  0
 24 20  1  0
M  RAD  2   9   2  19   2
M  END
>  <ID>  (1) 
conformer_0

$$$$
