
     RDKit          3D

 27 29  0  0  0  0  0  0  0  0999 V2000
   90.4434   47.0658   70.5604 C   0  0  0  0  0  0  0  0  0  0  0  0
   94.1514   49.1862   71.9212 C   0  0  0  0  0  0  0  0  0  0  0  0
   94.1152   50.3727   72.2328 C   0  0  0  0  0  0  0  0  0  0  0  0
   92.0222   46.0705   72.4890 C   0  0  0  0  0  0  0  0  0  0  0  0
   91.5737   47.6196   70.7665 N   0  0  0  0  0  0  0  0  0  0  0  0
   92.8791   45.8602   73.3254 N   0  0  0  0  0  0  0  0  0  0  0  0
   99.7182   46.2582   75.9914 P   0  0  0  0  0  4  0  0  0  0  0  0
   93.5042   47.9159   72.2658 N   0  0  0  0  0  0  0  0  0  0  0  0
   90.3595   44.2646   73.0521 N   0  0  0  0  0  0  0  0  0  0  0  0
   95.2395   50.3414   73.4348 C   0  0  0  0  0  0  0  0  0  0  0  0
   90.7239   45.5688   72.3291 C   0  0  0  0  0  0  0  0  0  0  0  0
   95.6400   48.8152   72.0240 O   0  0  0  0  0  0  0  0  0  0  0  0
   99.7023   46.3455   77.0648 O   0  0  0  0  0  0  0  0  0  0  0  0
   93.0176   51.0373   71.9349 O   0  0  0  0  0  0  0  0  0  0  0  0
   89.9821   45.9421   71.2173 N   0  0  0  0  0  0  0  0  0  0  0  0
   97.3751   47.5773   73.9927 O   0  0  0  0  0  0  0  0  0  0  0  0
   95.0718   51.3634   74.2665 O   0  0  0  0  0  0  0  0  0  0  0  0
   96.8198   46.4222   75.9968 O   0  0  0  0  0  0  0  0  0  0  0  0
  100.0351   46.3859   74.7408 O   0  0  0  0  0  1  0  0  0  0  0  0
   96.2615   50.0907   72.6823 C   0  0  0  0  0  0  0  0  0  0  0  0
   98.8324   44.8138   75.6378 O   0  0  0  0  0  0  0  0  0  0  0  0
   93.7555   46.9705   73.2083 C   0  0  0  0  0  0  0  0  0  0  0  0
   98.7985   47.8655   75.7479 O   0  0  0  0  0  0  0  0  0  0  0  0
   94.8617   51.6538   71.4242 O   0  0  0  0  0  0  0  0  0  0  0  0
   92.2992   47.3577   71.6456 C   0  0  0  0  0  0  0  0  0  0  0  0
   97.7123   46.9176   75.0355 P   0  0  0  0  0  0  0  0  0  0  0  0
   97.4045   48.7520   73.1865 C   0  0  0  0  0  0  0  0  0  0  0  0
  3  2  1  0
  5  1  2  0
  6  4  1  0
  8  2  1  0
 10  3  1  0
 11  4  1  0
 11  9  1  0
 12  2  1  0
 13  7  1  0
 14  3  1  0
 15  1  1  0
 15 11  2  0
 17 10  1  0
 19  7  1  0
 20 10  1  0
 20 12  1  0
 21  7  1  0
 22  6  2  0
 22  8  1  0
 23  7  1  0
 24  3  1  0
 25  4  2  0
 25  5  1  0
 25  8  1  0
 26 16  1  0
 26 18  1  0
 26 23  1  0
 27 16  1  0
 27 20  1  0
M  RAD  2   7   2  19   2
M  END
>  <ID>  (1) 
conformer_0

$$$$
