
     RDKit          3D

 24 25  0  0  0  0  0  0  0  0999 V2000
   90.3567   47.4841   70.5904 C   0  0  0  0  0  0  0  0  0  0  0  0
   94.0762   49.3733   71.8910 C   0  0  2  0  0  0  0  0  0  0  0  0
   94.4146   50.1837   72.3323 C   0  0  1  0  0  0  0  0  0  0  0  0
   93.3697   46.9111   72.7557 C   0  0  0  0  0  0  0  0  0  0  0  0
   89.8705   46.2356   71.0078 N   0  0  0  0  0  0  0  0  0  0  0  0
   92.7985   45.9063   72.9341 N   0  0  0  0  0  0  0  0  0  0  0  0
   99.3027   45.9180   75.9653 P   0  0  0  0  0  4  0  0  0  0  0  0
   96.1208   47.1499   76.0530 O   0  0  0  0  0  0  0  0  0  0  0  0
   93.3985   47.9239   72.2206 N   0  0  0  0  0  0  0  0  0  0  0  0
   95.7689   50.0771   72.7669 C   0  0  1  0  0  0  0  0  0  0  0  0
   98.4728   44.5479   75.6183 O   0  0  0  0  0  0  0  0  0  0  0  0
   98.1484   47.2179   75.3605 O   0  0  0  0  0  0  0  0  0  0  0  0
   90.3577   44.5941   72.5333 N   0  0  0  0  0  0  0  0  0  0  0  0
   96.5117   48.0469   73.9611 O   0  0  0  0  0  0  0  0  0  0  0  0
   91.0536   45.9635   72.0507 C   0  0  0  0  0  0  0  0  0  0  0  0
   95.3808   48.8044   71.7356 O   0  0  0  0  0  0  0  0  0  0  0  0
   95.3890   51.5833   72.6434 O   0  0  0  0  0  0  0  0  0  0  0  0
   97.0021   47.2077   75.1932 P   0  0  0  0  0  0  0  0  0  0  0  0
   91.1828   48.0043   70.7920 N   0  0  0  0  0  0  0  0  0  0  0  0
   99.6884   46.0350   77.0854 O   0  0  0  0  0  0  0  0  0  0  0  0
   99.9968   46.1318   74.8865 O   0  0  0  0  0  1  0  0  0  0  0  0
   92.1029   47.2232   71.7436 C   0  0  0  0  0  0  0  0  0  0  0  0
   93.4112   51.1185   71.8222 O   0  0  0  0  0  0  0  0  0  0  0  0
   96.8735   48.8443   72.9802 C   0  0  0  0  0  0  0  0  0  0  0  0
  3  2  1  0
  5  1  2  0
  6  4  2  3
  2  9  1  1
  9  4  1  0
 10  3  1  0
 11  7  1  0
 12  7  1  0
 15  5  1  0
 15 13  1  0
 16  2  1  0
 16 10  1  0
 10 17  1  6
 18  8  1  0
 18 12  1  0
 18 14  1  0
 19  1  1  0
 20  7  1  0
 21  7  1  0
 22  9  1  0
 22 15  2  0
 22 19  1  0
  3 23  1  6
 24 10  1  0
 24 14  1  0
M  RAD  2   7   2  21   2
M  END
>  <ID>  (1) 
conformer_0

$$$$
