
     RDKit          3D

 25 27  0  0  0  0  0  0  0  0999 V2000
   90.3538   46.9254   70.4511 C   0  0  0  0  0  0  0  0  0  0  0  0
   95.7779   50.3615   72.9855 C   0  0  0  0  0  0  0  0  0  0  0  0
   94.3004   50.1756   72.6102 C   0  0  0  0  0  0  0  0  0  0  0  0
   92.7950   45.8188   72.6483 N   0  0  0  0  0  0  0  0  0  0  0  0
   91.5503   47.7213   70.5361 N   0  0  0  0  0  0  0  0  0  0  0  0
   91.8863   46.9351   71.4566 C   0  0  0  0  0  3  0  0  0  0  0  0
   93.3806   47.9542   72.0066 N   0  0  0  0  0  0  0  0  0  0  0  0
   97.1209   47.5866   74.9577 P   0  0  0  0  0  0  0  0  0  0  0  0
   99.6501   46.2452   77.1095 O   0  0  0  0  0  0  0  0  0  0  0  0
   96.3230   48.7295   73.9821 O   0  0  0  0  0  0  0  0  0  0  0  0
   96.8575   49.2472   72.6070 C   0  0  0  0  0  0  0  0  0  0  0  0
   96.1373   46.8668   75.9161 O   0  0  0  0  0  0  0  0  0  0  0  0
   95.3859   48.7818   71.6866 O   0  0  0  0  0  0  0  0  0  0  0  0
   90.9843   45.5567   72.1380 C   0  0  0  0  0  0  0  0  0  0  0  0
   90.3416   44.3387   72.6451 N   0  0  0  0  0  0  0  0  0  0  0  0
   89.8063   46.0572   70.9961 N   0  0  0  0  0  0  0  0  0  0  0  0
   93.3361   51.0220   71.8565 O   0  0  0  0  0  0  0  0  0  0  0  0
   99.2733   46.0426   75.9639 P   0  0  0  0  0  5  0  0  0  0  0  0
   95.1526   51.6835   73.3624 O   0  0  0  0  0  0  0  0  0  0  0  0
   99.7415   46.4829   74.9223 O   0  0  0  0  0  0  0  0  0  0  0  0
   98.8508   44.6824   75.8597 O   0  0  0  0  0  0  0  0  0  0  0  0
   94.1376   49.3229   71.8304 C   0  0  0  0  0  0  0  0  0  0  0  0
   98.3437   48.5939   75.6041 O   0  0  0  0  0  0  0  0  0  0  0  0
   97.6047   46.7284   74.2543 O   0  0  0  0  0  0  0  0  0  0  0  0
   93.1640   46.8649   72.4066 C   0  0  0  0  0  0  0  0  0  0  0  0
  3  2  1  0
  5  1  2  0
  6  5  1  0
 10  8  1  0
 11  2  1  0
 11 10  1  0
 12  8  1  0
 13 11  1  0
 14  4  1  0
 14  6  1  0
 15 14  1  0
 16  1  1  0
 16 14  1  0
 17  3  1  0
 18  9  1  0
 19  2  1  0
 20 18  1  0
 21 18  1  0
 22  3  1  0
 22  7  1  0
 22 13  1  0
 23 18  1  0
 24  8  1  0
 24 18  1  0
 25  4  2  0
 25  6  1  0
 25  7  1  0
M  RAD  1   6   2
M  END
>  <ID>  (1) 
conformer_0

$$$$
