
     RDKit          3D

 23 25  0  0  0  0  0  0  0  0999 V2000
   90.6000   47.0333   70.6735 C   0  0  0  0  0  0  0  0  0  0  0  0
   94.0626   49.3500   71.8476 C   0  0  1  0  0  0  0  0  0  0  0  0
   94.6086   50.0329   72.6607 C   0  0  0  0  0  0  0  0  0  0  0  0
   93.4834   46.7904   72.9455 C   0  0  0  0  0  0  0  0  0  0  0  0
   91.5265   47.7541   70.6312 N   0  0  0  0  0  0  0  0  0  0  0  0
   92.9305   45.9456   73.1809 N   0  0  0  0  0  0  0  0  0  0  0  0
   95.9208   49.7978   72.9465 C   0  0  2  0  0  0  0  0  0  0  0  0
   95.5527   48.5559   71.6973 O   0  0  0  0  0  0  0  0  0  0  0  0
   93.4251   47.8539   72.1376 N   0  0  0  0  0  0  0  0  0  0  0  0
   96.0880   46.7720   76.1930 O   0  0  0  0  0  0  0  0  0  0  0  0
   99.1862   46.1544   76.0239 P   0  0  0  0  0  0  0  0  0  0  0  0
   90.3811   44.4551   72.7423 N   0  0  0  0  0  0  0  0  0  0  0  0
   96.7370   47.3307   73.9269 O   0  0  0  0  0  0  0  0  0  0  0  0
   91.1487   45.7307   72.2953 C   0  0  0  0  0  3  0  0  0  0  0  0
   90.0960   46.1134   71.0903 N   0  0  0  0  0  0  0  0  0  0  0  0
   95.0168   51.3888   73.4248 O   0  0  0  0  0  0  0  0  0  0  0  0
   98.4228   44.9944   76.1151 O   0  0  0  0  0  0  0  0  0  0  0  0
   98.1277   47.3858   75.4235 O   0  0  0  0  0  0  0  0  0  0  0  0
   93.6455   51.0386   71.5866 O   0  0  0  0  0  0  0  0  0  0  0  0
   97.2269   48.6662   72.9748 C   0  0  0  0  0  0  0  0  0  0  0  0
   92.2635   47.0036   71.8217 C   0  0  0  0  0  0  0  0  0  0  0  0
  100.1063   46.2992   75.6163 O   0  0  0  0  0  0  0  0  0  0  0  0
   96.8705   46.8450   75.1640 P   0  0  0  0  0  0  0  0  0  0  0  0
  3  2  1  0
  5  1  2  0
  6  4  2  3
  7  3  1  0
  8  2  1  0
  8  7  1  0
  2  9  1  1
  9  4  1  0
 14 12  1  0
 15  1  1  0
 15 14  1  0
 16  3  1  0
 17 11  1  0
 18 11  1  0
 19  3  1  0
  7 20  1  1
 20 13  1  0
 21  4  1  0
 21  5  1  0
 21  9  1  0
 21 14  1  0
 22 11  1  0
 23 10  1  0
 23 13  1  0
 23 18  1  0
M  RAD  1  14   2
M  END
>  <ID>  (1) 
conformer_0

$$$$
