
     RDKit          3D

 24 24  0  0  0  0  0  0  0  0999 V2000
   91.0326   47.1239   70.5763 C   0  0  0  0  0  0  0  0  0  0  0  0
   96.8011   49.3843   73.2238 C   0  0  0  0  0  0  0  0  0  0  0  0
   95.7582   50.0612   72.9455 C   0  0  0  0  0  0  0  0  0  0  0  0
   89.9331   46.1329   70.7882 N   0  0  0  0  0  0  0  0  0  0  0  0
   92.8788   46.9856   72.3026 C   0  0  0  0  0  0  0  0  0  0  0  0
   99.1229   45.8006   75.9109 P   0  0  0  0  0  5  0  0  0  0  0  0
   92.5395   45.9068   72.9747 N   0  0  0  0  0  0  0  0  0  0  0  0
   95.9672   47.2318   76.1165 O   0  0  0  0  0  0  0  0  0  0  0  0
   94.4110   50.1128   72.5253 C   0  0  0  0  0  0  0  0  0  0  0  0
   93.2866   47.8535   72.0935 N   0  0  0  0  0  0  0  0  0  0  0  0
   99.1541   47.6397   75.7897 O   0  0  0  0  0  0  0  0  0  0  0  0
   99.4052   44.4606   75.0094 O   0  0  0  0  0  0  0  0  0  0  0  0
   90.0954   44.6078   72.5297 N   0  0  0  0  0  0  0  0  0  0  0  0
   96.2032   48.3019   73.9921 O   0  0  0  0  0  0  0  0  0  0  0  0
   93.9697   51.1634   71.5173 O   0  0  0  0  0  0  0  0  0  0  0  0
   91.2504   46.0342   71.9796 C   0  0  1  0  0  0  0  0  0  0  0  0
   95.2856   48.7273   71.7042 O   0  0  0  0  0  0  0  0  0  0  0  0
   91.6035   47.7729   70.4777 N   0  0  0  0  0  0  0  0  0  0  0  0
   96.8818   47.1847   75.0995 P   0  0  0  0  0  0  0  0  0  0  0  0
   97.7896   45.5084   76.0598 O   0  0  0  0  0  0  0  0  0  0  0  0
   94.7812   51.4007   73.7359 O   0  0  0  0  0  0  0  0  0  0  0  0
   99.7540   45.6678   76.8614 O   0  0  0  0  0  0  0  0  0  0  0  0
   94.0240   49.3607   71.9811 C   0  0  2  0  0  0  0  0  0  0  0  0
   97.4153   46.7356   74.3063 O   0  0  0  0  0  0  0  0  0  0  0  0
  3  2  1  0
  4  1  1  0
  7  5  1  0
  9  3  1  0
 10  5  1  0
 11  6  1  0
 12  6  1  0
 13  4  1  0
 14  2  1  0
 15  9  1  0
 16  1  1  0
 16  4  1  0
 16  7  1  6
 18  1  2  3
 19  8  1  0
 19 14  1  0
 20  6  1  0
 21  9  1  0
 22  6  1  0
 23  9  1  0
 23 10  1  0
 23 17  1  6
 24  6  1  0
 24 19  1  0
M  END
>  <ID>  (1) 
conformer_0

$$$$
