
     RDKit          3D

 25 26  0  0  0  0  0  0  0  0999 V2000
   90.0186   46.8758   70.7234 C   0  0  0  0  0  0  0  0  0  0  0  0
   95.7964   50.2413   73.0315 C   0  0  0  0  0  0  0  0  0  0  0  0
   97.0750   49.3179   73.0230 C   0  0  0  0  0  0  0  0  0  0  0  0
   91.9621   46.7569   71.6885 C   0  0  0  0  0  3  0  0  0  0  0  0
   89.7835   45.8046   71.2665 N   0  0  0  0  0  0  0  0  0  0  0  0
   93.2522   47.6424   72.0801 N   0  0  0  0  0  0  0  0  0  0  0  0
   92.5974   45.7012   72.9699 N   0  0  0  0  0  0  0  0  0  0  0  0
   94.3577   50.0713   72.6065 C   0  0  0  0  0  0  0  0  0  0  0  0
   95.4218   48.7625   71.8973 O   0  0  0  0  0  0  0  0  0  0  0  0
   99.2690   46.2059   75.9200 P   0  0  0  0  0  4  0  0  0  0  0  0
   95.8829   47.1185   76.2234 O   0  0  0  0  0  0  0  0  0  0  0  0
   90.4600   44.0954   72.7662 N   0  0  0  0  0  0  0  0  0  0  0  0
   96.3948   45.9528   74.4688 O   0  0  0  0  0  1  0  0  0  0  0  0
   90.9287   45.4582   72.2386 C   0  0  0  0  0  0  0  0  0  0  0  0
   93.4594   51.0314   71.7212 O   0  0  0  0  0  0  0  0  0  0  0  0
   91.2429   47.6573   70.6820 N   0  0  0  0  0  0  0  0  0  0  0  0
   98.8882   44.4164   75.7321 O   0  0  0  0  0  0  0  0  0  0  0  0
   94.8349   51.4637   73.7327 O   0  0  0  0  0  0  0  0  0  0  0  0
   98.7946   46.3873   74.8968 O   0  0  0  0  0  0  0  0  0  0  0  0
   96.8058   48.2355   74.1684 O   0  0  0  0  0  0  0  0  0  0  0  0
   96.8287   46.9273   75.0249 P   0  0  0  0  0  4  0  0  0  0  0  0
   93.9699   49.2386   71.8448 C   0  0  0  0  0  0  0  0  0  0  0  0
   93.1472   46.7689   72.6216 C   0  0  0  0  0  0  0  0  0  0  0  0
   99.2117   48.0904   76.0951 O   0  0  0  0  0  1  0  0  0  0  0  0
   99.4422   46.0574   77.1424 O   0  0  0  0  0  0  0  0  0  0  0  0
  3  2  1  0
  5  1  2  0
  8  2  1  0
 14  4  1  0
 14  5  1  0
 14  7  1  0
 14 12  1  0
 15  8  1  0
 16  1  1  0
 16  4  1  0
 17 10  1  0
 18  2  1  0
 19 10  1  0
 20  3  1  0
 21 11  1  0
 21 13  1  0
 21 19  1  0
 21 20  1  0
 22  6  1  0
 22  8  1  0
 22  9  1  0
 23  4  1  0
 23  6  1  0
 23  7  2  0
 24 10  1  0
 25 10  1  0
M  RAD  5   4   2  10   2  13   2  21   2  24   2
M  END
>  <ID>  (1) 
conformer_0

$$$$
