
     RDKit          3D

 23 24  0  0  0  0  0  0  0  0999 V2000
   92.1890   47.0023   71.7745 C   0  0  0  0  0  0  0  0  0  0  0  0
   96.8860   48.8663   73.2774 C   0  0  2  0  0  0  0  0  0  0  0  0
   96.0978   50.1375   73.2204 C   0  0  0  0  0  0  0  0  0  0  0  0
   93.4173   47.0143   72.8975 C   0  0  0  0  0  0  0  0  0  0  0  0
   90.0046   45.8309   70.9289 N   0  0  0  0  0  0  0  0  0  0  0  0
   99.4946   46.0359   76.1380 P   0  0  0  0  0  4  0  0  0  0  0  0
   92.8971   46.0671   73.1351 N   0  0  0  0  0  0  0  0  0  0  0  0
   96.2867   46.8537   76.1781 O   0  0  0  0  0  0  0  0  0  0  0  0
   93.4021   48.0049   72.2354 N   0  0  0  0  0  0  0  0  0  0  0  0
   94.5703   50.2505   72.4978 C   0  0  2  0  0  0  0  0  0  0  0  0
   95.4989   48.9188   72.5896 O   0  0  0  0  0  0  0  0  0  0  0  0
   91.0919   45.7843   72.2485 C   0  0  0  0  0  0  0  0  0  0  0  0
   90.3369   44.4068   72.7332 N   0  0  0  0  0  0  0  0  0  0  0  0
   98.9982   44.6189   75.9372 O   0  0  0  0  0  0  0  0  0  0  0  0
   93.1274   50.8858   71.3806 O   0  0  0  0  0  0  0  0  0  0  0  0
   97.6164   47.0461   74.5491 O   0  0  0  0  0  0  0  0  0  0  0  0
  100.0915   46.4065   75.4168 O   0  0  0  0  0  1  0  0  0  0  0  0
   91.5801   47.5505   70.4653 N   0  0  0  0  0  0  0  0  0  0  0  0
   90.6982   46.7698   70.5070 C   0  0  0  0  0  0  0  0  0  0  0  0
   99.3602   47.3977   76.7721 O   0  0  0  0  0  0  0  0  0  0  0  0
   93.8653   49.6579   71.9368 C   0  0  2  0  0  0  0  0  0  0  0  0
   97.2877   46.7366   75.2122 P   0  0  0  0  0  0  0  0  0  0  0  0
   95.1261   51.4357   71.6189 O   0  0  0  0  0  0  0  0  0  0  0  0
  3  2  1  0
  4  1  1  0
  7  4  2  3
  9  4  1  0
 10  3  1  0
 11  2  1  0
 11  3  1  0
 12  1  2  0
 12  5  1  0
 13 12  1  0
 14  6  1  0
  2 16  1  1
 17  6  1  0
 18  1  1  0
 19  5  2  0
 19 18  1  0
 20  6  1  0
 21  9  1  0
 21 10  1  0
 21 15  1  1
 22  6  1  0
 22  8  1  0
 22 16  1  0
 10 23  1  6
M  RAD  2   6   2  17   2
M  END
>  <ID>  (1) 
conformer_0

$$$$
