
     RDKit          3D

 27 28  0  0  0  0  0  0  0  0999 V2000
   92.1771   47.5578   71.4383 C   0  0  0  0  0  0  0  0  0  0  0  0
   96.3460   49.7454   73.9803 C   0  0  0  0  0  0  0  0  0  0  0  0
   95.6016   50.0431   72.8409 C   0  0  0  0  0  0  0  0  0  0  0  0
   93.4694   47.0960   73.1096 C   0  0  0  0  0  0  0  0  0  0  0  0
   99.3287   46.1017   76.1914 P   0  0  0  0  0  5  0  0  0  0  0  0
   89.9973   45.6644   71.0113 N   0  0  0  0  0  0  0  0  0  0  0  0
   93.1997   48.0461   72.0998 N   0  0  0  0  0  0  0  0  0  0  0  0
   92.9033   46.0568   73.0487 N   0  0  0  0  0  0  0  0  0  0  0  0
   99.7597   46.4141   77.1721 O   0  0  0  0  0  0  0  0  0  0  0  0
   90.6082   44.1673   72.7671 N   0  0  0  0  0  0  0  0  0  0  0  0
   92.9307   50.8248   71.3580 O   0  0  0  0  0  0  0  0  0  0  0  0
   95.4001   48.6141   72.1614 O   0  0  0  0  0  0  0  0  0  0  0  0
   97.1645   48.6874   74.1461 O   0  0  0  0  0  0  0  0  0  0  0  0
   96.6314   46.4911   76.1240 O   0  0  0  0  0  0  0  0  0  0  0  0
   94.4787   51.3248   73.9958 O   0  0  0  0  0  0  0  0  0  0  0  0
   90.7623   45.5292   72.3163 C   0  0  0  0  0  0  0  0  0  0  0  0
   94.2372   50.2946   72.5557 C   0  0  0  0  0  0  0  0  0  0  0  0
   98.2654   46.8136   74.6249 O   0  0  0  0  0  0  0  0  0  0  0  0
   91.3746   47.5697   70.6407 N   0  0  0  0  0  0  0  0  0  0  0  0
   98.8568   48.7412   75.8902 O   0  0  0  0  0  0  0  0  0  0  0  0
   95.0135   51.2400   71.2997 O   0  0  0  0  0  0  0  0  0  0  0  0
   98.6125   44.8952   76.0836 O   0  0  0  0  0  0  0  0  0  0  0  0
   98.0562   47.8917   74.9704 P   0  0  0  0  0  0  0  0  0  0  0  0
   90.2850   46.7554   70.5469 C   0  0  0  0  0  0  0  0  0  0  0  0
   93.8828   49.3000   71.8103 C   0  0  0  0  0  0  0  0  0  0  0  0
  100.4300   46.2758   75.1491 O   0  0  0  0  0  0  0  0  0  0  0  0
   91.9615   46.1527   72.0454 C   0  0  0  0  0  0  0  0  0  0  0  0
  3  2  1  0
  7  1  1  0
  7  4  1  0
  8  4  2  0
  9  5  1  0
 12  3  1  0
 13  2  1  0
 16  6  1  0
 16 10  1  0
 17 11  1  0
 17 15  1  0
 18  5  1  0
 19  1  2  0
 20  5  1  0
 21 17  1  0
 22  5  1  0
 23 13  1  0
 23 14  1  0
 23 18  1  0
 24  6  2  0
 24 19  1  0
 25  7  1  0
 25 12  1  0
 25 17  1  0
 26  5  1  0
 27  1  1  0
 27  8  1  0
 27 16  2  0
M  END
>  <ID>  (1) 
conformer_0

$$$$
