
     RDKit          3D

 27 28  0  0  0  0  0  0  0  0999 V2000
   90.1563   46.8710   70.3738 C   0  0  0  0  0  0  0  0  0  0  0  0
   94.3059   50.0240   72.4176 C   0  0  0  0  0  0  0  0  0  0  0  0
   93.9866   49.2473   71.7635 C   0  0  0  0  0  0  0  0  0  0  0  0
   92.0296   46.0272   72.1936 C   0  0  0  0  0  0  0  0  0  0  0  0
   89.9223   45.8201   71.0351 N   0  0  0  0  0  0  0  0  0  0  0  0
   92.7729   45.6454   72.9892 N   0  0  0  0  0  0  0  0  0  0  0  0
   96.7281   47.1582   75.1101 P   0  0  0  0  0  4  0  0  0  0  0  0
   95.8642   47.0730   76.0869 O   0  0  0  0  0  0  0  0  0  0  0  0
   93.4536   47.6705   72.1960 N   0  0  0  0  0  0  0  0  0  0  0  0
   99.4563   45.5404   76.6527 O   0  0  0  0  0  0  0  0  0  0  0  0
   95.3192   48.9633   71.4567 O   0  0  0  0  0  0  0  0  0  0  0  0
   95.5051   50.4691   72.9239 C   0  0  0  0  0  0  0  0  0  0  0  0
   90.5374   44.0432   72.5948 N   0  0  0  0  0  0  0  0  0  0  0  0
   90.7588   45.2792   72.0449 C   0  0  0  0  0  0  0  0  0  0  0  0
   91.4269   47.5485   70.5774 N   0  0  0  0  0  0  0  0  0  0  0  0
   93.5401   51.1910   71.6242 O   0  0  0  0  0  0  0  0  0  0  0  0
  100.6286   46.2145   74.9745 O   0  0  0  0  0  1  0  0  0  0  0  0
   98.4711   46.8289   74.8829 O   0  0  0  0  0  0  0  0  0  0  0  0
   99.5196   46.6330   75.8916 P   0  0  0  0  0  4  0  0  0  0  0  0
   95.2426   51.7788   73.1542 O   0  0  0  0  0  0  0  0  0  0  0  0
   97.1871   48.7065   75.5707 O   0  0  0  0  0  0  0  0  0  0  0  0
   99.7096   47.7549   76.5756 O   0  0  0  0  0  0  0  0  0  0  0  0
   96.7128   49.3427   72.9119 C   0  0  0  0  0  0  0  0  0  0  0  0
   93.6976   46.8274   72.9272 C   0  0  0  0  0  0  0  0  0  0  0  0
   95.8966   48.4524   73.6132 O   0  0  0  0  0  0  0  0  0  0  0  0
   96.5366   46.0470   74.2416 O   0  0  0  0  0  1  0  0  0  0  0  0
   92.1179   47.2366   71.3864 C   0  0  0  0  0  0  0  0  0  0  0  0
  3  2  1  0
  5  1  2  0
  6  4  1  0
  8  7  1  0
  9  3  1  0
 11  3  1  0
 12  2  1  0
 14  4  2  0
 14  5  1  0
 14 13  1  0
 15  1  1  0
 16  2  1  0
 18  7  1  0
 19 10  1  0
 19 17  1  0
 19 18  1  0
 20 12  1  0
 21  7  1  0
 22 19  1  0
 23 12  1  0
 23 21  1  0
 24  6  2  0
 24  9  1  0
 25 23  1  0
 26  7  1  0
 27  4  1  0
 27  9  1  0
 27 15  2  0
M  RAD  4   7   2  17   2  19   2  26   2
M  END
>  <ID>  (1) 
conformer_0

$$$$
