
     RDKit          3D

 25 27  0  0  0  0  0  0  0  0999 V2000
   90.3833   47.0127   70.1837 C   0  0  0  0  0  0  0  0  0  0  0  0
   95.9224   49.9122   73.0097 C   0  0  0  0  0  0  0  0  0  0  0  0
   94.4880   50.1035   72.6154 C   0  0  0  0  0  0  0  0  0  0  0  0
   89.8689   46.0107   70.8795 N   0  0  0  0  0  0  0  0  0  0  0  0
   91.8450   47.0917   71.4900 C   0  0  0  0  0  3  0  0  0  0  0  0
   92.5544   46.0936   72.9951 N   0  0  0  0  0  0  0  0  0  0  0  0
   96.1337   46.8372   76.1689 O   0  0  0  0  0  0  0  0  0  0  0  0
   97.2502   47.4578   75.4692 P   0  0  0  0  0  0  0  0  0  0  0  0
   95.5119   48.7583   72.0882 O   0  0  0  0  0  0  0  0  0  0  0  0
   90.8659   45.7982   72.1907 C   0  0  0  0  0  0  0  0  0  0  0  0
   97.2145   49.0413   73.2568 C   0  0  0  0  0  0  0  0  0  0  0  0
   90.1209   44.4307   72.6948 N   0  0  0  0  0  0  0  0  0  0  0  0
   98.1685   46.3536   74.7947 O   0  0  0  0  0  0  0  0  0  0  0  0
   93.3208   47.9768   72.1251 N   0  0  0  0  0  0  0  0  0  0  0  0
   99.0376   44.4821   75.1797 O   0  0  0  0  0  0  0  0  0  0  0  0
   93.0214   50.8654   71.8465 O   0  0  0  0  0  0  0  0  0  0  0  0
   91.5121   47.7515   70.3772 N   0  0  0  0  0  0  0  0  0  0  0  0
   94.7900   51.3381   73.9295 O   0  0  0  0  0  0  0  0  0  0  0  0
   98.9876   48.1500   76.0756 O   0  0  0  0  0  1  0  0  0  0  0  0
   96.9028   48.2485   74.3384 O   0  0  0  0  0  0  0  0  0  0  0  0
   95.0606   51.4160   71.4285 O   0  0  0  0  0  0  0  0  0  0  0  0
   94.0332   49.4845   71.8966 C   0  0  0  0  0  0  0  0  0  0  0  0
   93.0466   46.9609   72.7019 C   0  0  0  0  0  0  0  0  0  0  0  0
   99.0565   45.7144   76.8676 O   0  0  0  0  0  0  0  0  0  0  0  0
   98.8619   45.8241   75.6957 P   0  0  0  0  0  4  0  0  0  0  0  0
  3  2  1  0
  4  1  2  0
  8  7  1  0
  9  2  1  0
 10  4  1  0
 10  5  1  0
 10  6  1  0
 11  2  1  0
 12 10  1  0
 13  8  1  0
 17  1  1  0
 17  5  1  0
 18  3  1  0
 20  8  1  0
 20 11  1  0
 21  3  1  0
 22  3  1  0
 22  9  1  0
 22 14  1  0
 22 16  1  0
 23  5  1  0
 23  6  2  0
 23 14  1  0
 25 13  1  0
 25 15  1  0
 25 19  1  0
 25 24  1  0
M  RAD  3   5   2  19   2  25   2
M  END
>  <ID>  (1) 
conformer_0

$$$$
