
     RDKit          3D

 25 27  0  0  0  0  0  0  0  0999 V2000
   96.7334   49.4416   73.3307 C   0  0  0  0  0  0  0  0  0  0  0  0
   90.4358   46.7691   70.5734 C   0  0  0  0  0  0  0  0  0  0  0  0
   95.7330   50.0403   72.6887 C   0  0  0  0  0  0  0  0  0  0  0  0
   90.0426   45.7048   70.9654 N   0  0  0  0  0  0  0  0  0  0  0  0
   93.1463   46.9298   72.5696 C   0  0  0  0  0  0  0  0  0  0  0  0
   95.7508   47.1333   76.1863 O   0  0  0  0  0  0  0  0  0  0  0  0
   96.5365   47.3405   75.1408 P   0  0  0  0  0  4  0  0  0  0  0  0
   97.8441   47.8459   75.5831 O   0  0  0  0  0  0  0  0  0  0  0  0
   94.2772   50.0098   72.2427 C   0  0  0  0  0  0  0  0  0  0  0  0
   98.5544   45.0630   76.2902 O   0  0  0  0  0  0  0  0  0  0  0  0
   95.4738   48.7469   71.5412 O   0  0  0  0  0  0  0  0  0  0  0  0
   93.3669   47.7320   71.8920 N   0  0  0  0  0  0  0  0  0  0  0  0
   95.2176   51.4881   72.0105 O   0  0  0  0  0  0  0  0  0  0  0  0
   92.7708   45.8507   73.0255 N   0  0  0  0  0  0  0  0  0  0  0  0
   91.1213   45.4654   72.2420 C   0  0  0  0  0  0  0  0  0  0  0  0
   99.6987   46.4043   74.9256 O   0  0  0  0  0  1  0  0  0  0  0  0
   90.5135   44.3752   72.5461 N   0  0  0  0  0  0  0  0  0  0  0  0
   96.2711   45.9582   74.3250 O   0  0  0  0  0  1  0  0  0  0  0  0
   91.2970   47.3398   70.5224 N   0  0  0  0  0  0  0  0  0  0  0  0
   99.0747   46.4863   76.0322 P   0  0  0  0  0  4  0  0  0  0  0  0
   93.1287   50.7604   71.4701 O   0  0  0  0  0  0  0  0  0  0  0  0
   96.2468   48.4108   73.9384 O   0  0  0  0  0  0  0  0  0  0  0  0
   99.6738   46.9473   76.9590 O   0  0  0  0  0  0  0  0  0  0  0  0
   94.0370   49.1327   71.5263 C   0  0  0  0  0  0  0  0  0  0  0  0
   92.1535   46.8756   71.4998 C   0  0  0  0  0  3  0  0  0  0  0  0
  3  1  1  0
  4  2  2  0
  7  6  1  0
  8  7  1  0
  9  3  1  0
 11  3  1  0
 12  5  1  0
 13  3  1  0
 14  5  2  0
 15  4  1  0
 15 14  1  0
 17 15  1  0
 18  7  1  0
 19  2  1  0
 20  8  1  0
 20 10  1  0
 20 16  1  0
 21  9  1  0
 22  1  1  0
 22  7  1  0
 23 20  1  0
 24  9  1  0
 24 11  1  0
 24 12  1  0
 25  5  1  0
 25 15  1  0
 25 19  1  0
M  RAD  5   7   2  16   2  18   2  20   2  25   2
M  END
>  <ID>  (1) 
conformer_0

$$$$
