
     RDKit          3D

 26 28  0  0  0  0  0  0  0  0999 V2000
   95.8196   50.0894   72.8266 C   0  0  0  0  0  0  0  0  0  0  0  0
   90.2509   47.2896   70.6302 C   0  0  0  0  0  0  0  0  0  0  0  0
   97.1139   49.3892   73.1880 C   0  0  0  0  0  0  0  0  0  0  0  0
   92.0368   46.8911   71.7649 C   0  0  0  0  0  0  0  0  0  0  0  0
   91.5049   47.8810   70.8458 N   0  0  0  0  0  0  0  0  0  0  0  0
   92.6471   45.7114   72.8679 N   0  0  0  0  0  0  0  0  0  0  0  0
   99.4919   46.3928   76.1208 P   0  0  0  0  0  4  0  0  0  0  0  0
   94.3319   50.0708   72.3483 C   0  0  0  0  0  0  0  0  0  0  0  0
   96.0634   46.7664   75.9998 O   0  0  0  0  0  0  0  0  0  0  0  0
   98.1628   48.5189   75.8935 O   0  0  0  0  0  0  0  0  0  0  0  0
   99.7470   46.4809   77.1908 O   0  0  0  0  0  0  0  0  0  0  0  0
   93.5548   47.6265   72.1738 N   0  0  0  0  0  0  0  0  0  0  0  0
   95.6221   48.6950   71.7841 O   0  0  0  0  0  0  0  0  0  0  0  0
   89.9989   44.5715   72.8045 N   0  0  0  0  0  0  0  0  0  0  0  0
  100.7005   46.2006   75.2684 O   0  0  0  0  0  1  0  0  0  0  0  0
   90.8408   45.8150   72.1732 C   0  0  0  0  0  3  0  0  0  0  0  0
   96.6959   46.1474   73.6024 O   0  0  0  0  0  0  0  0  0  0  0  0
   93.9131   50.9788   71.0362 O   0  0  0  0  0  0  0  0  0  0  0  0
   89.7453   46.1779   71.1610 N   0  0  0  0  0  0  0  0  0  0  0  0
   96.9815   47.2902   75.1772 P   0  0  0  0  0  5  0  0  0  0  0  0
   96.5480   48.6993   74.1296 O   0  0  0  0  0  0  0  0  0  0  0  0
   94.1066   51.3289   73.1720 O   0  0  0  0  0  0  0  0  0  0  0  0
   93.3362   46.8014   72.6201 C   0  0  0  0  0  0  0  0  0  0  0  0
   94.3542   49.2712   71.6722 C   0  0  0  0  0  0  0  0  0  0  0  0
   98.5773   44.9881   76.2470 O   0  0  0  0  0  0  0  0  0  0  0  0
   98.5058   46.6982   74.9306 O   0  0  0  0  0  0  0  0  0  0  0  0
  3  1  1  0
  5  2  2  0
  5  4  1  0
  6  4  1  0
  8  1  1  0
 11  7  1  0
 13  1  1  0
 15  7  1  0
 16  4  1  0
 16 14  1  0
 18  8  1  0
 19  2  1  0
 19 16  1  0
 20  9  1  0
 20 10  1  0
 20 17  1  0
 21  3  1  0
 21 20  1  0
 22  8  1  0
 23  4  1  0
 23  6  2  0
 23 12  1  0
 24  8  1  0
 24 12  1  0
 24 13  1  0
 25  7  1  0
 26  7  1  0
 26 20  1  0
M  RAD  3   7   2  15   2  16   2
M  END
>  <ID>  (1) 
conformer_0

$$$$
