
     RDKit          3D

 23 26  0  0  0  0  0  0  0  0999 V2000
   90.4646   47.2076   70.8666 C   0  0  0  0  0  0  0  0  0  0  0  0
   96.8073   49.2807   73.2631 C   0  0  0  0  0  0  0  0  0  0  0  0
   95.8216   50.3438   72.9483 C   0  0  0  0  0  0  0  0  0  0  0  0
   92.2521   46.8943   71.8849 C   0  0  0  0  0  0  0  0  0  0  0  0
   91.6284   47.7785   70.9938 N   0  0  0  0  0  0  0  0  0  0  0  0
   99.1957   46.3273   76.0347 P   0  0  0  0  0  4  0  0  0  0  0  0
   92.8073   45.7225   72.9307 N   0  0  0  0  0  0  0  0  0  0  0  0
   93.7470   47.5720   72.4501 N   0  0  0  0  0  0  0  0  0  0  0  0
   96.0220   48.3880   72.7327 O   0  0  0  0  0  0  0  0  0  0  0  0
   97.2786   47.3218   74.4331 O   0  0  0  0  0  0  0  0  0  0  0  0
   90.6077   44.2835   72.4557 N   0  0  0  0  0  0  0  0  0  0  0  0
   98.6399   44.7970   75.5374 O   0  0  0  0  0  0  0  0  0  0  0  0
   94.4822   49.9134   72.2408 C   0  0  0  0  0  0  0  0  0  0  0  0
   91.0834   45.7098   72.1988 C   0  0  0  0  0  0  0  0  0  0  0  0
   96.4616   46.6982   76.1815 O   0  0  0  0  0  0  0  0  0  0  0  0
   93.9152   50.6576   71.4625 O   0  0  0  0  0  0  0  0  0  0  0  0
   95.6169   51.2994   73.9042 O   0  0  0  0  0  0  0  0  0  0  0  0
   90.0480   46.0105   71.1833 N   0  0  0  0  0  0  0  0  0  0  0  0
   99.4853   47.0191   75.1980 O   0  0  0  0  0  1  0  0  0  0  0  0
   99.1098   46.4080   77.0428 O   0  0  0  0  0  0  0  0  0  0  0  0
   93.5247   46.7774   72.9291 C   0  0  0  0  0  0  0  0  0  0  0  0
   94.6372   48.7839   71.9576 C   0  0  0  0  0  0  0  0  0  0  0  0
   97.1616   47.0001   74.9549 P   0  0  0  0  0  0  0  0  0  0  0  0
  3  2  1  0
  5  1  2  0
  5  4  1  0
  7  4  1  0
  9  2  1  0
 10  2  1  0
 12  6  1  0
 13  3  1  0
 14  4  1  0
 14  7  1  0
 14 11  1  0
 16 13  1  0
 17  3  1  0
 18  1  1  0
 18 14  1  0
 19  6  1  0
 20  6  1  0
 21  4  1  0
 21  7  1  0
 21  8  1  0
 22  8  1  0
 22  9  1  0
 22 13  1  0
 23  6  1  0
 23 10  1  0
 23 15  1  0
M  RAD  2   6   2  19   2
M  END
>  <ID>  (1) 
conformer_0

$$$$
