
     RDKit          3D

 28 30  0  0  0  0  0  0  0  0999 V2000
   96.2663   49.8264   72.4761 C   0  0  0  0  0  0  0  0  0  0  0  0
   90.1200   47.0625   70.6248 C   0  0  0  0  0  0  0  0  0  0  0  0
   93.8313   50.2792   72.2304 C   0  0  0  0  0  0  0  0  0  0  0  0
   92.2215   46.0807   72.2707 C   0  0  0  0  0  0  0  0  0  0  0  0
   93.0088   45.7480   72.9184 N   0  0  0  0  0  0  0  0  0  0  0  0
   91.3615   47.7110   70.7408 N   0  0  0  0  0  0  0  0  0  0  0  0
   97.1386   48.7417   73.0870 C   0  0  0  0  0  0  0  0  0  0  0  0
   93.4962   47.8291   72.0598 N   0  0  0  0  0  0  0  0  0  0  0  0
   95.4445   48.9390   71.4670 O   0  0  0  0  0  0  0  0  0  0  0  0
   95.9620   47.2421   76.2849 O   0  0  0  0  0  0  0  0  0  0  0  0
   99.5040   46.1395   76.1710 P   0  0  0  0  0  5  0  0  0  0  0  0
   90.7756   45.6299   72.1011 C   0  0  0  0  0  0  0  0  0  0  0  0
   92.8107   50.9342   71.7292 O   0  0  0  0  0  0  0  0  0  0  0  0
   90.7304   44.1469   72.7171 N   0  0  0  0  0  0  0  0  0  0  0  0
   95.3263   51.2843   73.9986 O   0  0  0  0  0  0  0  0  0  0  0  0
   97.5464   46.1622   75.4680 O   0  0  0  0  0  0  0  0  0  0  0  0
   99.9164   46.1434   77.1634 O   0  0  0  0  0  0  0  0  0  0  0  0
   89.9059   45.8873   71.2924 N   0  0  0  0  0  0  0  0  0  0  0  0
   96.9509   48.1285   74.0824 O   0  0  0  0  0  0  0  0  0  0  0  0
   99.0096   44.5362   75.6902 O   0  0  0  0  0  0  0  0  0  0  0  0
   94.0797   49.1623   71.6946 C   0  0  0  0  0  0  0  0  0  0  0  0
   93.8662   46.9088   72.8244 C   0  0  0  0  0  0  0  0  0  0  0  0
   97.2557   47.2486   75.2291 P   0  0  0  0  0  0  0  0  0  0  0  0
  100.1540   46.3769   75.1216 O   0  0  0  0  0  0  0  0  0  0  0  0
   94.8647   51.6174   71.5228 O   0  0  0  0  0  0  0  0  0  0  0  0
   98.6273   48.0848   75.9136 O   0  0  0  0  0  0  0  0  0  0  0  0
   95.0520   50.3174   73.1739 C   0  0  0  0  0  0  0  0  0  0  0  0
   92.1932   47.3402   71.4747 C   0  0  0  0  0  0  0  0  0  0  0  0
  5  4  1  0
  6  2  2  0
  7  1  1  0
  9  1  1  0
 12  4  1  0
 13  3  1  0
 14 12  1  0
 16 11  1  0
 17 11  1  0
 18  2  1  0
 18 12  2  0
 19  7  1  0
 20 11  1  0
 21  3  1  0
 21  8  1  0
 21  9  1  0
 22  5  2  0
 22  8  1  0
 23 10  1  0
 23 16  1  0
 23 19  1  0
 24 11  1  0
 25  3  1  0
 26 11  1  0
 27  1  1  0
 27  3  1  0
 27 15  1  0
 28  4  2  0
 28  6  1  0
 28  8  1  0
M  END
>  <ID>  (1) 
conformer_0

$$$$
