
     RDKit          3D

 25 26  0  0  0  0  0  0  0  0999 V2000
   94.1349   49.1820   71.7407 C   0  0  0  0  0  0  0  0  0  0  0  0
   90.4057   47.1515   70.9478 C   0  0  0  0  0  0  0  0  0  0  0  0
   94.0825   50.1822   72.3253 C   0  0  1  0  0  0  0  0  0  0  0  0
   92.1499   46.9921   71.7420 C   0  0  1  0  0  0  0  0  0  0  0  0
   89.8109   46.0214   71.2664 N   0  0  0  0  0  0  0  0  0  0  0  0
   93.4244   47.7025   72.0185 N   0  0  0  0  0  0  0  0  0  0  0  0
   92.9517   45.5789   72.7172 N   0  0  0  0  0  0  0  0  0  0  0  0
   95.5176   50.1676   72.8123 C   0  0  1  0  0  0  0  0  0  0  0  0
   97.1806   47.3790   75.1454 P   0  0  0  0  0  0  0  0  0  0  0  0
   95.3617   48.8245   71.3716 O   0  0  0  0  0  0  0  0  0  0  0  0
   96.0632   47.2812   76.1856 O   0  0  0  0  0  0  0  0  0  0  0  0
   99.7882   46.3541   77.0761 O   0  0  0  0  0  0  0  0  0  0  0  0
   90.4541   44.3032   72.5583 N   0  0  0  0  0  0  0  0  0  0  0  0
   96.5749   48.4035   73.9040 O   0  0  0  0  0  0  0  0  0  0  0  0
   94.8688   51.2675   73.7663 O   0  0  0  0  0  0  0  0  0  0  0  0
   93.3939   51.1141   71.3917 O   0  0  0  0  0  0  0  0  0  0  0  0
   98.7427   48.6701   75.7854 O   0  0  0  0  0  0  0  0  0  0  0  0
   91.0969   45.5641   72.1546 C   0  0  0  0  0  3  0  0  0  0  0  0
   99.7067   45.9668   75.1759 O   0  0  0  0  0  0  0  0  0  0  0  0
   91.2645   47.7518   70.8802 N   0  0  0  0  0  0  0  0  0  0  0  0
   99.3774   46.1734   76.0548 P   0  0  0  0  0  5  0  0  0  0  0  0
   97.6907   45.4829   76.2276 O   0  0  0  0  0  0  0  0  0  0  0  0
   96.7747   49.1538   72.8297 C   0  0  0  0  0  0  0  0  0  0  0  0
   97.4907   46.5682   74.4280 O   0  0  0  0  0  0  0  0  0  0  0  0
   93.4337   46.6466   72.5233 C   0  0  0  0  0  0  0  0  0  0  0  0
  3  1  1  0
  5  2  2  0
  6  1  1  0
  6  4  1  0
  8  3  1  0
 10  1  2  0
 11  9  1  0
 14  9  1  0
  8 15  1  1
  3 16  1  6
 18  4  1  0
 18  5  1  0
 18 13  1  0
 20  2  1  0
  4 20  1  6
 21 12  1  0
 21 17  1  0
 21 19  1  0
 22 21  1  0
 23  8  1  0
 23 14  1  0
 24  9  1  0
 24 21  1  0
 25  4  1  0
 25  6  1  0
 25  7  2  3
M  RAD  1  18   2
M  END
>  <ID>  (1) 
conformer_0

$$$$
