
     RDKit          3D

 25 26  0  0  0  0  0  0  0  0999 V2000
   95.1994   50.3077   72.8990 C   0  0  0  0  0  0  0  0  0  0  0  0
   90.2873   46.7297   70.7305 C   0  0  0  0  0  0  0  0  0  0  0  0
   94.0345   49.9750   72.1116 C   0  0  0  0  0  0  0  0  0  0  0  0
   93.1768   46.8277   72.5005 C   0  0  0  0  0  0  0  0  0  0  0  0
   89.8095   45.8061   71.3283 N   0  0  0  0  0  0  0  0  0  0  0  0
   99.4351   46.1763   75.9794 P   0  0  0  0  0  5  0  0  0  0  0  0
   93.3084   47.7007   71.8529 N   0  0  0  0  0  0  0  0  0  0  0  0
   92.7142   45.8080   73.0373 N   0  0  0  0  0  0  0  0  0  0  0  0
   95.8869   47.1864   76.2292 O   0  0  0  0  0  0  0  0  0  0  0  0
   90.3096   44.2908   73.0954 N   0  0  0  0  0  0  0  0  0  0  0  0
   96.7387   48.5159   74.0894 O   0  0  0  0  0  0  0  0  0  0  0  0
   98.5005   48.0122   75.8491 O   0  0  0  0  0  0  0  0  0  0  0  0
   96.3783   49.5965   73.1697 C   0  0  0  0  0  0  0  0  0  0  0  0
   99.5563   46.1422   77.1341 O   0  0  0  0  0  0  0  0  0  0  0  0
   95.6135   48.6654   71.7947 O   0  0  0  0  0  0  0  0  0  0  0  0
   90.9726   45.5180   72.4675 C   0  0  0  0  0  0  0  0  0  0  0  0
   91.2914   47.4998   70.4926 N   0  0  0  0  0  0  0  0  0  0  0  0
   93.6196   50.9744   71.2029 O   0  0  0  0  0  0  0  0  0  0  0  0
   97.0420   47.5295   74.9664 P   0  0  0  0  0  0  0  0  0  0  0  0
  100.1035   46.5260   74.9781 O   0  0  0  0  0  0  0  0  0  0  0  0
   94.2327   51.3561   73.3398 O   0  0  0  0  0  0  0  0  0  0  0  0
   99.0722   44.7426   75.6725 O   0  0  0  0  0  0  0  0  0  0  0  0
   92.0781   46.8516   71.6366 C   0  0  0  0  0  0  0  0  0  0  0  0
   97.1943   46.3451   74.5054 O   0  0  0  0  0  0  0  0  0  0  0  0
   94.1734   49.0584   71.4756 C   0  0  0  0  0  0  0  0  0  0  0  0
  3  1  1  0
  5  2  1  0
  7  4  1  0
  8  4  2  0
 12  6  1  0
 13  1  1  0
 13 11  1  0
 14  6  1  0
 15 13  1  0
 16  5  2  0
 16  8  1  0
 16 10  1  0
 17  2  2  0
 18  3  1  0
 19  9  1  0
 19 11  1  0
 20  6  1  0
 21  1  1  0
 22  6  1  0
 23  4  1  0
 23 17  1  0
 24  6  1  0
 24 19  1  0
 25  3  1  0
 25  7  1  0
 25 15  1  0
M  END
>  <ID>  (1) 
conformer_0

$$$$
