
     RDKit          3D

 24 26  0  0  0  0  0  0  0  0999 V2000
   90.5747   47.0106   70.5724 C   0  0  0  0  0  0  0  0  0  0  0  0
   96.9929   49.3398   73.6264 C   0  0  0  0  0  0  0  0  0  0  0  0
   95.9365   49.9936   72.9271 C   0  0  0  0  0  0  0  0  0  0  0  0
   92.3346   46.8567   71.7969 C   0  0  0  0  0  3  0  0  0  0  0  0
   90.0337   46.0069   71.0543 N   0  0  0  0  0  0  0  0  0  0  0  0
   93.6694   47.5427   72.3404 N   0  0  0  0  0  0  0  0  0  0  0  0
   96.4434   47.9919   74.0057 O   0  0  0  0  0  0  0  0  0  0  0  0
   99.2839   46.1512   76.2003 P   0  0  0  0  0  4  0  0  0  0  0  0
   94.4829   49.9701   72.2448 C   0  0  0  0  0  0  0  0  0  0  0  0
   95.6408   48.6523   71.9031 O   0  0  0  0  0  0  0  0  0  0  0  0
   92.8073   45.7712   73.1386 N   0  0  0  0  0  0  0  0  0  0  0  0
   91.1530   45.6655   72.2196 C   0  0  0  0  0  0  0  0  0  0  0  0
   95.9994   47.0395   76.1483 O   0  0  0  0  0  0  0  0  0  0  0  0
   90.4612   44.2253   72.5955 N   0  0  0  0  0  0  0  0  0  0  0  0
   98.9725   44.4938   75.4979 O   0  0  0  0  0  0  0  0  0  0  0  0
   93.6607   50.7662   71.0289 O   0  0  0  0  0  0  0  0  0  0  0  0
   91.6052   47.5739   70.5398 N   0  0  0  0  0  0  0  0  0  0  0  0
   99.3699   47.2952   76.2343 O   0  0  0  0  0  1  0  0  0  0  0  0
   96.9101   46.9309   75.0341 P   0  0  0  0  0  0  0  0  0  0  0  0
   93.6902   46.7795   72.9301 C   0  0  0  0  0  0  0  0  0  0  0  0
   95.1665   51.4741   72.5715 O   0  0  0  0  0  0  0  0  0  0  0  0
   94.1711   49.1951   71.8779 C   0  0  0  0  0  0  0  0  0  0  0  0
   99.5694   45.8062   77.0378 O   0  0  0  0  0  0  0  0  0  0  0  0
   97.6252   46.4971   74.9558 O   0  0  0  0  0  0  0  0  0  0  0  0
  3  2  1  0
  5  1  2  0
  6  4  1  0
  7  2  1  0
  9  3  1  0
 10  3  1  0
 12  4  1  0
 12  5  1  0
 12 11  1  0
 14 12  1  0
 15  8  1  0
 16  9  1  0
 17  1  1  0
 17  4  1  0
 18  8  1  0
 19  7  1  0
 19 13  1  0
 20  6  1  0
 20 11  2  0
 21  9  1  0
 22  6  1  0
 22  9  1  0
 22 10  1  0
 23  8  1  0
 24  8  1  0
 24 19  1  0
M  RAD  3   4   2   8   2  18   2
M  END
>  <ID>  (1) 
conformer_0

$$$$
