
     RDKit          3D

 26 27  0  0  0  0  0  0  0  0999 V2000
   94.2634   50.2118   72.3434 C   0  0  0  0  0  0  0  0  0  0  0  0
   90.0503   47.2035   70.4761 C   0  0  0  0  0  0  0  0  0  0  0  0
   95.6605   50.2423   73.0353 C   0  0  0  0  0  0  0  0  0  0  0  0
   97.0366   49.3957   73.1126 C   0  0  0  0  0  0  0  0  0  0  0  0
   91.1833   47.9218   70.6714 N   0  0  0  0  0  0  0  0  0  0  0  0
   92.7170   45.9878   72.8833 N   0  0  0  0  0  0  0  0  0  0  0  0
   91.9107   46.1292   72.0037 C   0  0  0  0  0  0  0  0  0  0  0  0
   97.2882   47.5052   75.1487 P   0  0  0  0  0  4  0  0  0  0  0  0
   95.4052   48.9458   71.6277 O   0  0  0  0  0  0  0  0  0  0  0  0
   93.2126   48.0414   71.9139 N   0  0  0  0  0  0  0  0  0  0  0  0
   99.5264   46.1271   77.2096 O   0  0  0  0  0  0  0  0  0  0  0  0
   90.3951   44.3790   72.6374 N   0  0  0  0  0  0  0  0  0  0  0  0
   96.8410   48.3601   74.1343 O   0  0  0  0  0  0  0  0  0  0  0  0
   93.3205   51.2277   71.4917 O   0  0  0  0  0  0  0  0  0  0  0  0
   90.6181   45.6974   72.0817 C   0  0  0  0  0  0  0  0  0  0  0  0
   95.8794   46.8597   75.8041 O   0  0  0  0  0  0  0  0  0  0  0  0
   94.9871   51.5160   73.5609 O   0  0  0  0  0  0  0  0  0  0  0  0
  100.0204   45.3431   75.2439 O   0  0  0  0  0  1  0  0  0  0  0  0
   89.8454   46.0246   70.9935 N   0  0  0  0  0  0  0  0  0  0  0  0
   98.5990   48.7458   76.0030 O   0  0  0  0  0  1  0  0  0  0  0  0
   99.2238   45.8862   76.0371 P   0  0  0  0  0  4  0  0  0  0  0  0
   93.8995   49.4350   71.6376 C   0  0  0  0  0  0  0  0  0  0  0  0
   97.6281   45.1508   76.1537 O   0  0  0  0  0  0  0  0  0  0  0  0
   93.4013   47.1318   72.7595 C   0  0  0  0  0  0  0  0  0  0  0  0
   98.2889   46.7567   74.8334 O   0  0  0  0  0  0  0  0  0  0  0  0
   91.8444   47.8047   71.2055 C   0  0  0  0  0  0  0  0  0  0  0  0
  3  1  1  0
  4  3  1  0
  5  2  2  0
  7  6  1  0
 13  4  1  0
 13  8  1  0
 14  1  1  0
 15  7  1  0
 15 12  1  0
 16  8  1  0
 17  3  1  0
 19  2  1  0
 19 15  2  0
 20  8  1  0
 21 11  1  0
 21 18  1  0
 22  1  1  0
 22  9  1  0
 22 10  1  0
 23 21  1  0
 24  6  2  0
 24 10  1  0
 25  8  1  0
 25 21  1  0
 26  5  1  0
 26  7  2  0
 26 10  1  0
M  RAD  4   8   2  18   2  20   2  21   2
M  END
>  <ID>  (1) 
conformer_0

$$$$
