
     RDKit          3D

 26 28  0  0  0  0  0  0  0  0999 V2000
   96.9693   49.3565   73.4467 C   0  0  0  0  0  0  0  0  0  0  0  0
   90.2071   46.9120   70.6912 C   0  0  0  0  0  0  0  0  0  0  0  0
   95.9142   50.1433   73.1051 C   0  0  2  0  0  0  0  0  0  0  0  0
   92.0007   47.0467   71.6167 C   0  0  2  0  0  0  0  0  0  0  0  0
   89.8094   45.8211   71.1664 N   0  0  0  0  0  0  0  0  0  0  0  0
   92.8252   45.8746   73.0863 N   0  0  0  0  0  0  0  0  0  0  0  0
   97.5620   47.4231   75.4376 P   0  0  0  0  0  0  0  0  0  0  0  0
   94.5514   50.1703   72.4873 C   0  0  2  0  0  0  0  0  0  0  0  0
   90.5305   44.2336   72.8535 N   0  0  0  0  0  0  0  0  0  0  0  0
   95.4216   48.9287   71.9242 O   0  0  0  0  0  0  0  0  0  0  0  0
   91.0357   45.7187   72.2698 C   0  0  0  0  0  3  0  0  0  0  0  0
   96.7706   48.4840   74.6361 O   0  0  0  0  0  0  0  0  0  0  0  0
   99.6923   45.4621   76.6213 O   0  0  0  0  0  0  0  0  0  0  0  0
   93.3370   47.8708   72.0245 N   0  0  0  0  0  0  0  0  0  0  0  0
   99.5860   45.3354   74.3482 O   0  0  0  0  0  0  0  0  0  0  0  0
   90.9797   47.5762   70.5916 N   0  0  0  0  0  0  0  0  0  0  0  0
   96.1001   46.5354   76.1220 O   0  0  0  0  0  0  0  0  0  0  0  0
   95.6787   51.6167   72.1469 O   0  0  0  0  0  0  0  0  0  0  0  0
   93.2409   46.8054   72.7352 C   0  0  0  0  0  0  0  0  0  0  0  0
   93.8843   49.3947   71.7665 C   0  0  1  0  0  0  0  0  0  0  0  0
   93.0097   50.8209   71.9796 O   0  0  0  0  0  0  0  0  0  0  0  0
   98.6889   47.9398   76.0540 O   0  0  0  0  0  0  0  0  0  0  0  0
   98.9798   45.4842   75.5127 P   0  0  0  0  0  5  0  0  0  0  0  0
   97.8647   44.6161   76.0064 O   0  0  0  0  0  0  0  0  0  0  0  0
   94.3427   51.2278   73.9741 O   0  0  0  0  0  0  0  0  0  0  0  0
   97.6374   46.4068   74.6323 O   0  0  0  0  0  0  0  0  0  0  0  0
  3  1  1  0
  5  2  2  0
  8  3  1  0
 10  8  1  0
 11  4  1  0
 11  5  1  0
 11  9  1  0
 12  1  1  0
 12  7  1  0
 14  4  1  0
 16  2  1  0
  4 16  1  6
 17  7  1  0
  3 18  1  6
 19  4  1  0
 19  6  2  3
 19 14  1  0
 20  8  1  0
 20 10  1  0
 20 14  1  0
 20 21  1  6
 23 13  1  0
 23 15  1  0
 23 22  1  0
 24 23  1  0
  8 25  1  6
 26  7  1  0
 26 23  1  0
M  RAD  1  11   2
M  END
>  <ID>  (1) 
conformer_0

$$$$
