
     RDKit          3D

 22 23  0  0  0  0  0  0  0  0999 V2000
   95.3884   49.9229   72.9842 C   0  0  1  0  0  0  0  0  0  0  0  0
   92.0349   46.9580   71.6027 C   0  0  0  0  0  0  0  0  0  0  0  0
   96.9983   49.5776   73.4541 C   0  0  0  0  0  0  0  0  0  0  0  0
   93.3604   46.7959   72.6355 C   0  0  0  0  0  0  0  0  0  0  0  0
   89.7463   46.3078   70.7818 N   0  0  0  0  0  0  0  0  0  0  0  0
   92.6236   45.7839   72.7460 N   0  0  0  0  0  0  0  0  0  0  0  0
   95.8894   47.2368   76.2445 O   0  0  0  0  0  0  0  0  0  0  0  0
   95.7030   48.5935   72.1302 O   0  0  0  0  0  0  0  0  0  0  0  0
   98.1123   46.5089   75.4855 P   0  0  0  0  0  5  0  0  0  0  0  0
   93.5778   47.6297   72.2072 N   0  0  0  0  0  0  0  0  0  0  0  0
   90.3336   47.5099   70.3596 C   0  0  0  0  0  0  0  0  0  0  0  0
   94.3249   49.4274   72.2783 C   0  0  1  0  0  0  0  0  0  0  0  0
   97.1733   48.1167   74.5412 O   0  0  0  0  0  0  0  0  0  0  0  0
   99.2463   46.5985   76.9178 O   0  0  0  0  0  0  0  0  0  0  0  0
   97.1372   45.6328   75.2356 O   0  0  0  0  0  0  0  0  0  0  0  0
   99.0505   44.3937   75.4867 O   0  0  0  0  0  0  0  0  0  0  0  0
   90.0089   44.7858   72.4770 N   0  0  0  0  0  0  0  0  0  0  0  0
   93.6103   50.8305   71.7654 O   0  0  0  0  0  0  0  0  0  0  0  0
   91.3682   47.9512   70.5862 N   0  0  0  0  0  0  0  0  0  0  0  0
   99.3600   46.8845   74.8074 O   0  0  0  0  0  0  0  0  0  0  0  0
   90.9021   45.9469   71.8386 C   0  0  2  0  0  0  0  0  0  0  0  0
   94.7493   51.3625   73.3691 O   0  0  0  0  0  0  0  0  0  0  0  0
  3  1  1  0
  4  2  1  0
  6  4  2  3
  8  1  1  0
  9  7  1  0
 10  4  1  0
 11  5  2  0
 12  1  1  0
 12  8  1  0
 12 10  1  0
 13  3  1  0
 13  9  1  0
 14  9  1  0
 15  9  1  0
 16  9  1  0
 12 18  1  6
 19  2  2  0
 19 11  1  0
 20 15  1  0
 21  2  1  0
 21  5  1  0
 21 17  1  1
  1 22  1  6
M  END
>  <ID>  (1) 
conformer_0

$$$$
