
     RDKit          3D

 26 27  0  0  0  0  0  0  0  0999 V2000
   97.0526   49.2015   73.3380 C   0  0  0  0  0  0  0  0  0  0  0  0
   90.7623   45.5231   72.3172 C   0  0  0  0  0  0  0  0  0  0  0  0
   95.7249   50.0424   73.2338 C   0  0  0  0  0  0  0  0  0  0  0  0
   93.8339   47.0746   73.0896 C   0  0  0  0  0  0  0  0  0  0  0  0
   89.9090   45.8537   71.2287 N   0  0  0  0  0  0  0  0  0  0  0  0
   94.6141   50.0326   72.4398 C   0  0  0  0  0  0  0  0  0  0  0  0
   99.4925   46.1827   75.9642 P   0  0  0  0  0  4  0  0  0  0  0  0
   96.2284   46.7679   76.2063 O   0  0  0  0  0  0  0  0  0  0  0  0
   90.5487   44.2660   72.8355 N   0  0  0  0  0  0  0  0  0  0  0  0
   92.9107   46.0020   73.2557 N   0  0  0  0  0  0  0  0  0  0  0  0
   95.5675   48.8360   71.7315 O   0  0  0  0  0  0  0  0  0  0  0  0
   93.4580   47.8290   72.1916 N   0  0  0  0  0  0  0  0  0  0  0  0
   90.1309   46.9071   70.5041 C   0  0  0  0  0  0  0  0  0  0  0  0
   99.3176   46.1082   77.1746 O   0  0  0  0  0  0  0  0  0  0  0  0
   98.6528   47.3347   75.2136 O   0  0  0  0  0  0  0  0  0  0  0  0
   95.2565   51.4122   73.8558 O   0  0  0  0  0  0  0  0  0  0  0  0
  100.5179   46.2337   75.2348 O   0  0  0  0  0  1  0  0  0  0  0  0
   93.8017   50.9362   71.4551 O   0  0  0  0  0  0  0  0  0  0  0  0
   91.2566   47.4201   70.6680 N   0  0  0  0  0  0  0  0  0  0  0  0
   96.9836   46.9002   75.0439 P   0  0  0  0  0  4  0  0  0  0  0  0
   93.9030   49.4109   71.6194 C   0  0  0  0  0  0  0  0  0  0  0  0
   92.0463   46.2839   72.4250 C   0  0  0  0  0  0  0  0  0  0  0  0
   96.9241   45.8453   74.3564 O   0  0  0  0  0  1  0  0  0  0  0  0
   96.7686   48.1657   73.9985 O   0  0  0  0  0  0  0  0  0  0  0  0
   99.0541   44.5337   76.0597 O   0  0  0  0  0  0  0  0  0  0  0  0
   92.2940   47.3187   71.6149 C   0  0  0  0  0  0  0  0  0  0  0  0
  3  1  1  0
  5  2  2  0
  6  3  1  0
  9  2  1  0
 10  4  2  0
 11  6  1  0
 12  4  1  0
 13  5  1  0
 14  7  1  0
 15  7  1  0
 16  3  1  0
 17  7  1  0
 19 13  2  0
 20  8  1  0
 20 15  1  0
 21  6  1  0
 21 12  1  0
 21 18  1  0
 22  2  1  0
 22 10  1  0
 23 20  1  0
 24  1  1  0
 24 20  1  0
 25  7  1  0
 26 12  1  0
 26 19  1  0
 26 22  2  0
M  RAD  4   7   2  17   2  20   2  23   2
M  END
>  <ID>  (1) 
conformer_0

$$$$
