
     RDKit          3D

 26 27  0  0  0  0  0  0  0  0999 V2000
   90.0956   47.0469   70.4492 C   0  0  0  0  0  0  0  0  0  0  0  0
   95.7539   50.2013   73.0578 C   0  0  0  0  0  0  0  0  0  0  0  0
   96.8589   49.4082   73.0908 C   0  0  0  0  0  0  0  0  0  0  0  0
   89.6640   46.0845   70.9167 N   0  0  0  0  0  0  0  0  0  0  0  0
   91.8415   47.0146   71.3840 C   0  0  0  0  0  3  0  0  0  0  0  0
   95.8586   47.2275   76.2013 O   0  0  0  0  0  0  0  0  0  0  0  0
   93.2348   47.8785   71.9462 N   0  0  0  0  0  0  0  0  0  0  0  0
   99.3152   46.1228   76.0590 P   0  0  0  0  0  5  0  0  0  0  0  0
   95.3971   48.6925   71.8364 O   0  0  0  0  0  0  0  0  0  0  0  0
   94.4199   50.1096   72.4491 C   0  0  0  0  0  0  0  0  0  0  0  0
   92.5042   45.9582   72.8091 N   0  0  0  0  0  0  0  0  0  0  0  0
   99.6366   46.1425   77.2196 O   0  0  0  0  0  0  0  0  0  0  0  0
   98.5667   48.5853   75.9160 O   0  0  0  0  0  0  0  0  0  0  0  0
   90.1060   44.5265   72.6601 N   0  0  0  0  0  0  0  0  0  0  0  0
   97.0552   45.6425   75.2437 O   0  0  0  0  0  0  0  0  0  0  0  0
   92.8264   50.7126   71.5513 O   0  0  0  0  0  0  0  0  0  0  0  0
   90.8228   45.8159   72.0491 C   0  0  0  0  0  0  0  0  0  0  0  0
   99.8424   46.4987   75.1357 O   0  0  0  0  0  0  0  0  0  0  0  0
   91.0960   47.7488   70.4458 N   0  0  0  0  0  0  0  0  0  0  0  0
   94.3604   51.2553   73.8421 O   0  0  0  0  0  0  0  0  0  0  0  0
   98.9885   44.4675   75.6012 O   0  0  0  0  0  0  0  0  0  0  0  0
   95.1281   51.3448   71.4205 O   0  0  0  0  0  0  0  0  0  0  0  0
   97.0899   48.0312   74.2550 O   0  0  0  0  0  0  0  0  0  0  0  0
   97.1383   47.1463   75.2663 P   0  0  0  0  0  0  0  0  0  0  0  0
   93.9446   49.3052   71.7056 C   0  0  0  0  0  0  0  0  0  0  0  0
   92.9865   46.9631   72.4671 C   0  0  0  0  0  0  0  0  0  0  0  0
  3  2  1  0
  4  1  2  0
 10  2  1  0
 12  8  1  0
 13  8  1  0
 15  8  1  0
 17  4  1  0
 17  5  1  0
 17 11  1  0
 17 14  1  0
 18  8  1  0
 19  1  1  0
 19  5  1  0
 20 10  1  0
 21  8  1  0
 22 10  1  0
 23  3  1  0
 24  6  1  0
 24 15  1  0
 24 23  1  0
 25  7  1  0
 25  9  1  0
 25 10  1  0
 25 16  1  0
 26  5  1  0
 26  7  1  0
 26 11  2  0
M  RAD  1   5   2
M  END
>  <ID>  (1) 
conformer_0

$$$$
