
     RDKit          3D

 27 29  0  0  0  0  0  0  0  0999 V2000
   95.4720   50.4326   73.0173 C   0  0  0  0  0  0  0  0  0  0  0  0
   90.5114   46.5802   70.5517 C   0  0  0  0  0  0  0  0  0  0  0  0
   93.9573   49.7837   72.4958 C   0  0  0  0  0  0  0  0  0  0  0  0
   91.6194   47.4073   70.4231 N   0  0  0  0  0  0  0  0  0  0  0  0
   93.1324   46.8161   72.8755 C   0  0  0  0  0  0  0  0  0  0  0  0
   95.9955   47.1049   76.2211 O   0  0  0  0  0  0  0  0  0  0  0  0
   93.1931   47.8451   71.9629 N   0  0  0  0  0  0  0  0  0  0  0  0
   99.0302   46.1258   75.7758 P   0  0  0  0  0  4  0  0  0  0  0  0
   92.6445   45.9153   73.1532 N   0  0  0  0  0  0  0  0  0  0  0  0
   98.0943   47.1713   74.9606 O   0  0  0  0  0  0  0  0  0  0  0  0
   96.3245   48.4057   74.0522 O   0  0  0  0  0  0  0  0  0  0  0  0
   98.6048   44.6767   75.5677 O   0  0  0  0  0  0  0  0  0  0  0  0
   95.2278   48.6444   71.6519 O   0  0  0  0  0  0  0  0  0  0  0  0
   90.3551   44.3031   72.6943 N   0  0  0  0  0  0  0  0  0  0  0  0
   94.3477   51.1494   71.4035 O   0  0  0  0  0  0  0  0  0  0  0  0
   93.7962   49.1057   71.4091 C   0  0  0  0  0  0  0  0  0  0  0  0
   91.0857   45.5358   72.3390 C   0  0  0  0  0  0  0  0  0  0  0  0
   90.0879   45.8155   71.0660 N   0  0  0  0  0  0  0  0  0  0  0  0
   95.9939   45.9609   74.1400 O   0  0  0  0  0  1  0  0  0  0  0  0
   96.5936   47.2659   75.1303 P   0  0  0  0  0  4  0  0  0  0  0  0
   95.4074   51.4292   73.6122 O   0  0  0  0  0  0  0  0  0  0  0  0
   93.1345   50.8607   73.2219 O   0  0  0  0  0  0  0  0  0  0  0  0
   95.7347   49.3765   72.2927 C   0  0  0  0  0  0  0  0  0  0  0  0
   92.2273   47.0128   71.5301 C   0  0  0  0  0  0  0  0  0  0  0  0
  100.2105   46.5135   75.3400 O   0  0  0  0  0  1  0  0  0  0  0  0
   98.8994   45.9664   77.0339 O   0  0  0  0  0  0  0  0  0  0  0  0
   97.2846   49.1873   73.8220 C   0  0  0  0  0  0  0  0  0  0  0  0
  3  1  1  0
  4  2  1  0
  7  5  1  0
  9  5  1  0
 10  8  1  0
 12  8  1  0
 15  3  1  0
 16  3  1  0
 16  7  1  0
 16 13  1  0
 17  9  2  0
 17 14  1  0
 18  2  2  0
 18 17  1  0
 20  6  1  0
 20 10  1  0
 20 11  1  0
 20 19  1  0
 21  1  1  0
 22  3  1  0
 23  1  1  0
 23 13  1  0
 24  4  1  0
 24  5  2  0
 24  7  1  0
 25  8  1  0
 26  8  1  0
 27 11  1  0
 27 23  1  0
M  RAD  4   8   2  19   2  20   2  25   2
M  END
>  <ID>  (1) 
conformer_0

$$$$
