
     RDKit          3D

 28 30  0  0  0  0  0  0  0  0999 V2000
   90.4089   47.3219   70.1931 C   0  0  0  0  0  0  0  0  0  0  0  0
   95.3278   50.3041   73.0953 C   0  0  0  0  0  0  0  0  0  0  0  0
   96.8601   49.4143   74.2816 C   0  0  0  0  0  0  0  0  0  0  0  0
   92.0293   46.3118   72.3827 C   0  0  0  0  0  0  0  0  0  0  0  0
   91.4200   47.8532   70.4335 N   0  0  0  0  0  0  0  0  0  0  0  0
   93.6679   47.9379   72.1163 N   0  0  0  0  0  0  0  0  0  0  0  0
   92.7928   46.0106   73.2599 N   0  0  0  0  0  0  0  0  0  0  0  0
   90.7058   45.9819   72.0097 C   0  0  0  0  0  0  0  0  0  0  0  0
   96.1849   46.9590   76.2936 O   0  0  0  0  0  0  0  0  0  0  0  0
   89.9402   46.1524   70.8954 N   0  0  0  0  0  0  0  0  0  0  0  0
   99.0249   45.7232   75.8436 P   0  0  0  0  0  5  0  0  0  0  0  0
   95.4851   48.7587   71.6799 O   0  0  0  0  0  0  0  0  0  0  0  0
   94.3664   50.2876   71.8756 C   0  0  0  0  0  0  0  0  0  0  0  0
   90.3199   44.5997   72.7398 N   0  0  0  0  0  0  0  0  0  0  0  0
   93.5077   51.0391   71.1730 O   0  0  0  0  0  0  0  0  0  0  0  0
   99.2735   44.6024   75.8923 O   0  0  0  0  0  0  0  0  0  0  0  0
   99.2264   46.5235   74.9969 O   0  0  0  0  0  0  0  0  0  0  0  0
   97.0907   45.2007   74.9914 O   0  0  0  0  0  0  0  0  0  0  0  0
   95.3216   51.4065   73.8782 O   0  0  0  0  0  0  0  0  0  0  0  0
   97.0707   48.0172   74.5707 O   0  0  0  0  0  0  0  0  0  0  0  0
   99.4487   46.6004   77.1994 O   0  0  0  0  0  0  0  0  0  0  0  0
   93.6989   47.0906   73.0609 C   0  0  0  0  0  0  0  0  0  0  0  0
   99.0602   48.6575   75.6292 O   0  0  0  0  0  0  0  0  0  0  0  0
   94.1927   49.0513   71.5690 C   0  0  0  0  0  0  0  0  0  0  0  0
   95.5293   51.5530   71.6814 O   0  0  0  0  0  0  0  0  0  0  0  0
   97.8094   47.5994   75.5188 P   0  0  0  0  0  0  0  0  0  0  0  0
   92.3196   47.4783   71.3709 C   0  0  0  0  0  0  0  0  0  0  0  0
   96.4332   49.4259   72.7641 C   0  0  0  0  0  0  0  0  0  0  0  0
  5  1  2  0
  7  4  1  0
  8  4  1  0
 10  1  1  0
 10  8  2  0
 13  2  1  0
 14  8  1  0
 15 13  1  0
 16 11  1  0
 17 11  1  0
 18 11  1  0
 19  2  1  0
 20  3  1  0
 21 11  1  0
 22  6  1  0
 22  7  2  0
 23 11  1  0
 24  6  1  0
 24 12  1  0
 24 13  1  0
 25 13  1  0
 26  9  1  0
 26 20  1  0
 26 23  1  0
 27  4  2  0
 27  5  1  0
 27  6  1  0
 28  2  1  0
 28  3  1  0
 28 12  1  0
M  END
>  <ID>  (1) 
conformer_0

$$$$
