
     RDKit          3D

 25 26  0  0  0  0  0  0  0  0999 V2000
   95.7336   50.0164   72.9075 C   0  0  1  0  0  0  0  0  0  0  0  0
   90.2859   47.5689   70.3713 C   0  0  0  0  0  0  0  0  0  0  0  0
   96.8487   49.4636   73.4181 C   0  0  0  0  0  0  0  0  0  0  0  0
   91.4694   48.1046   70.6133 N   0  0  0  0  0  0  0  0  0  0  0  0
   91.8610   47.0689   71.4703 C   0  0  0  0  0  0  0  0  0  0  0  0
   92.6045   45.9679   72.7059 N   0  0  0  0  0  0  0  0  0  0  0  0
   99.7859   46.1316   76.0567 P   0  0  0  0  0  5  0  0  0  0  0  0
   93.3499   47.8740   72.0901 N   0  0  0  0  0  0  0  0  0  0  0  0
   96.8477   47.1000   75.1253 P   0  0  0  0  0  0  0  0  0  0  0  0
  100.1198   46.8868   76.8813 O   0  0  0  0  0  0  0  0  0  0  0  0
   95.8996   47.0631   76.1053 O   0  0  0  0  0  0  0  0  0  0  0  0
   98.2599   47.2120   75.6065 O   0  0  0  0  0  0  0  0  0  0  0  0
  100.7584   45.8438   75.0061 O   0  0  0  0  0  0  0  0  0  0  0  0
   95.5838   48.7893   71.8414 O   0  0  0  0  0  0  0  0  0  0  0  0
   90.1485   44.7180   72.4511 N   0  0  0  0  0  0  0  0  0  0  0  0
   94.2705   49.9673   72.4223 C   0  0  0  0  0  0  0  0  0  0  0  0
   89.8447   46.4873   70.7845 N   0  0  0  0  0  0  0  0  0  0  0  0
   90.7758   45.8649   71.8319 C   0  0  0  0  0  0  0  0  0  0  0  0
   93.8128   51.0143   71.1843 O   0  0  0  0  0  0  0  0  0  0  0  0
   99.3367   44.9231   76.4125 O   0  0  0  0  0  0  0  0  0  0  0  0
   96.6171   48.5621   74.1757 O   0  0  0  0  0  0  0  0  0  0  0  0
   94.2619   51.3188   73.2876 O   0  0  0  0  0  0  0  0  0  0  0  0
   93.1473   47.0084   72.5376 C   0  0  0  0  0  0  0  0  0  0  0  0
   96.9791   46.2967   74.0857 O   0  0  0  0  0  0  0  0  0  0  0  0
   94.0659   49.3087   71.7709 C   0  0  2  0  0  0  0  0  0  0  0  0
  1  3  1  1
  4  2  2  0
  5  4  1  0
 10  7  1  0
 11  9  1  0
 12  7  1  0
 13  7  1  0
 14  1  1  0
 16  1  1  0
 17  2  1  0
 18  5  2  0
 18 15  1  0
 18 17  1  0
 19 16  1  0
 20  7  1  0
 21  3  1  0
 21  9  1  0
 22 16  1  0
 23  5  1  0
 23  6  2  3
 23  8  1  0
 24  7  1  0
 24  9  1  0
 25  8  1  1
 25 14  1  0
 25 16  1  0
M  END
>  <ID>  (1) 
conformer_0

$$$$
