
     RDKit          3D

 26 26  0  0  0  0  0  0  0  0999 V2000
   95.4411   50.3354   73.0987 C   0  0  0  0  0  0  0  0  0  0  0  0
   90.5998   46.7791   70.4037 C   0  0  0  0  0  0  0  0  0  0  0  0
   96.7044   49.6277   72.9499 C   0  0  0  0  0  0  0  0  0  0  0  0
   92.0417   46.7880   71.5935 C   0  0  0  0  0  0  0  0  0  0  0  0
   91.5999   47.4895   70.4216 N   0  0  0  0  0  0  0  0  0  0  0  0
   92.6092   45.9831   73.1347 N   0  0  0  0  0  0  0  0  0  0  0  0
   97.2253   47.5590   74.9359 P   0  0  0  0  0  5  0  0  0  0  0  0
   93.3027   47.7921   72.1277 N   0  0  0  0  0  0  0  0  0  0  0  0
   98.9294   44.6543   75.8529 O   0  0  0  0  0  0  0  0  0  0  0  0
   95.9986   47.0613   76.1217 O   0  0  0  0  0  0  0  0  0  0  0  0
   99.8704   46.5031   75.1170 O   0  0  0  0  0  1  0  0  0  0  0  0
   90.8766   45.6024   72.2561 C   0  0  0  0  0  0  0  0  0  0  0  0
   89.9127   45.8749   70.9339 N   0  0  0  0  0  0  0  0  0  0  0  0
   98.0974   48.0514   75.1523 O   0  0  0  0  0  0  0  0  0  0  0  0
   94.2995   50.0172   72.2866 C   0  0  0  0  0  0  0  0  0  0  0  0
   93.1614   50.7362   71.0554 O   0  0  0  0  0  0  0  0  0  0  0  0
   95.3603   48.6423   71.6245 O   0  0  0  0  0  0  0  0  0  0  0  0
   90.2769   44.2872   72.7392 N   0  0  0  0  0  0  0  0  0  0  0  0
   99.3489   45.9871   76.1384 P   0  0  0  0  0  4  0  0  0  0  0  0
   99.6070   46.3051   77.1871 O   0  0  0  0  0  0  0  0  0  0  0  0
   93.7634   51.3969   73.4038 O   0  0  0  0  0  0  0  0  0  0  0  0
   95.3522   51.4385   71.4688 O   0  0  0  0  0  0  0  0  0  0  0  0
   97.1483   46.3384   74.1900 O   0  0  0  0  0  0  0  0  0  0  0  0
   93.1337   46.8479   72.7061 C   0  0  0  0  0  0  0  0  0  0  0  0
   93.9597   49.1874   71.7936 C   0  0  1  0  0  0  0  0  0  0  0  0
   96.0846   48.6937   73.8848 O   0  0  0  0  0  0  0  0  0  0  0  0
  3  1  1  0
  5  2  2  0
  5  4  1  0
 10  7  1  0
 12  4  2  0
 13  2  1  0
 13 12  1  0
 14  7  1  0
 16 15  1  0
 18 12  1  0
 19  7  1  0
 19  9  1  0
 19 11  1  0
 20 19  1  0
 21 15  1  0
 22 15  1  0
 23 14  1  0
 24  4  1  0
 24  6  2  3
 24  8  1  0
 25  1  1  0
 25  8  1  0
 25 15  1  0
 25 17  1  6
 26  3  1  0
 26  7  1  0
M  RAD  2  11   2  19   2
M  END
>  <ID>  (1) 
conformer_0

$$$$
