
     RDKit          3D

 25 27  0  0  0  0  0  0  0  0999 V2000
   93.6802   49.3468   71.6403 C   0  0  0  0  0  0  0  0  0  0  0  0
   90.1779   46.8432   70.7031 C   0  0  0  0  0  0  0  0  0  0  0  0
   93.8797   50.1169   72.2658 C   0  0  0  0  0  0  0  0  0  0  0  0
   91.9431   46.8735   71.7156 C   0  0  0  0  0  3  0  0  0  0  0  0
   89.8802   45.8021   71.2152 N   0  0  0  0  0  0  0  0  0  0  0  0
   92.7454   45.7928   72.8915 N   0  0  0  0  0  0  0  0  0  0  0  0
   95.3728   49.9909   72.5354 C   0  0  0  0  0  0  0  0  0  0  0  0
   95.2271   48.5951   71.5849 O   0  0  0  0  0  0  0  0  0  0  0  0
   99.3683   46.0014   75.9125 P   0  0  0  0  0  5  0  0  0  0  0  0
   93.0914   47.7667   72.0684 N   0  0  0  0  0  0  0  0  0  0  0  0
   90.4352   44.1322   72.9209 N   0  0  0  0  0  0  0  0  0  0  0  0
  100.0049   46.4342   76.9020 O   0  0  0  0  0  0  0  0  0  0  0  0
   95.9777   46.8760   75.8693 O   0  0  0  0  0  0  0  0  0  0  0  0
   99.8502   44.7020   75.0097 O   0  0  0  0  0  0  0  0  0  0  0  0
   98.5078   46.6180   74.7588 O   0  0  0  0  0  0  0  0  0  0  0  0
   91.0447   45.4275   72.3157 C   0  0  0  0  0  0  0  0  0  0  0  0
   92.9114   51.0580   71.7301 O   0  0  0  0  0  0  0  0  0  0  0  0
   91.0698   47.6296   70.6271 N   0  0  0  0  0  0  0  0  0  0  0  0
   96.9845   47.3823   75.1042 P   0  0  0  0  0  0  0  0  0  0  0  0
   95.2642   51.4681   72.1627 O   0  0  0  0  0  0  0  0  0  0  0  0
   98.0828   45.1274   76.4035 O   0  0  0  0  0  0  0  0  0  0  0  0
   96.5194   48.0921   73.9225 O   0  0  0  0  0  0  0  0  0  0  0  0
   96.7096   49.4171   72.9431 C   0  0  0  0  0  0  0  0  0  0  0  0
   98.0447   48.5264   75.7930 O   0  0  0  0  0  0  0  0  0  0  0  0
   93.1749   46.8612   72.7097 C   0  0  0  0  0  0  0  0  0  0  0  0
  3  1  1  0
  5  2  2  0
  7  3  1  0
  8  1  1  0
  8  7  1  0
 10  1  1  0
 10  4  1  0
 12  9  1  0
 14  9  1  0
 15  9  1  0
 16  4  1  0
 16  5  1  0
 16  6  1  0
 16 11  1  0
 17  3  1  0
 18  2  1  0
 18  4  1  0
 19 13  1  0
 20  7  1  0
 21  9  1  0
 22 19  1  0
 23  7  1  0
 23 22  1  0
 24  9  1  0
 24 19  1  0
 25  6  2  0
 25 10  1  0
M  RAD  1   4   2
M  END
>  <ID>  (1) 
conformer_0

$$$$
