
     RDKit          3D

 23 25  0  0  0  0  0  0  0  0999 V2000
   94.3768   50.2570   72.5433 C   0  0  0  0  0  0  0  0  0  0  0  0
   90.2372   46.8249   70.7343 C   0  0  0  0  0  0  0  0  0  0  0  0
   93.9599   49.3210   71.8853 C   0  0  0  0  0  0  0  0  0  0  0  0
   93.4344   46.6665   72.3529 C   0  0  0  0  0  0  0  0  0  0  0  0
   89.7848   45.9273   71.1185 N   0  0  0  0  0  0  0  0  0  0  0  0
   93.3257   47.7466   71.9294 N   0  0  0  0  0  0  0  0  0  0  0  0
   92.9073   45.5765   72.6228 N   0  0  0  0  0  0  0  0  0  0  0  0
   95.7605   50.1365   72.7270 C   0  0  0  0  0  0  0  0  0  0  0  0
   95.9186   47.0555   76.1103 O   0  0  0  0  0  0  0  0  0  0  0  0
   95.2270   48.8076   71.7886 O   0  0  0  0  0  0  0  0  0  0  0  0
   97.2406   47.4744   75.2226 P   0  0  0  0  0  0  0  0  0  0  0  0
   98.6768   46.9993   75.6063 O   0  0  0  0  0  0  0  0  0  0  0  0
  100.2626   46.1749   77.0949 O   0  0  0  0  0  0  0  0  0  0  0  0
   91.1268   45.4752   72.1266 C   0  0  0  0  0  0  0  0  0  0  0  0
   96.9645   48.1986   74.4126 O   0  0  0  0  0  0  0  0  0  0  0  0
   90.1816   44.3798   72.7041 N   0  0  0  0  0  0  0  0  0  0  0  0
   93.4961   51.2055   71.7187 O   0  0  0  0  0  0  0  0  0  0  0  0
   91.2377   47.7037   70.5915 N   0  0  0  0  0  0  0  0  0  0  0  0
   95.3968   51.5226   73.4924 O   0  0  0  0  0  0  0  0  0  0  0  0
   99.3638   46.0410   76.2539 P   0  0  0  0  0  0  0  0  0  0  0  0
   96.8095   49.0766   72.9018 C   0  0  0  0  0  0  0  0  0  0  0  0
   99.1308   44.5667   76.0416 O   0  0  0  0  0  0  0  0  0  0  0  0
   92.0798   46.8278   71.5712 C   0  0  0  0  0  3  0  0  0  0  0  0
  3  1  1  0
  5  2  2  0
  6  3  1  0
  6  4  1  0
  7  4  2  0
  8  1  1  0
 10  3  1  0
 10  8  1  0
 11  9  1  0
 12 11  1  0
 14  5  1  0
 14  7  1  0
 15 11  1  0
 16 14  1  0
 17  1  1  0
 18  2  1  0
 19  8  1  0
 20 12  1  0
 20 13  1  0
 21  8  1  0
 21 15  1  0
 22 20  1  0
 23  4  1  0
 23 14  1  0
 23 18  1  0
M  RAD  1  23   2
M  END
>  <ID>  (1) 
conformer_0

$$$$
