
     RDKit          3D

 25 26  0  0  0  0  0  0  0  0999 V2000
   90.1799   46.8464   70.8828 C   0  0  0  0  0  0  0  0  0  0  0  0
   94.2410   49.2283   71.6955 C   0  0  2  0  0  0  0  0  0  0  0  0
   94.2143   50.0417   72.4924 C   0  0  0  0  0  0  0  0  0  0  0  0
   92.0262   46.8968   71.6998 C   0  0  0  0  0  0  0  0  0  0  0  0
   92.8966   45.7769   72.9681 N   0  0  0  0  0  0  0  0  0  0  0  0
   89.7900   45.7785   71.3863 N   0  0  0  0  0  0  0  0  0  0  0  0
   99.5998   46.2190   76.1201 P   0  0  0  0  0  4  0  0  0  0  0  0
   96.2219   47.1329   76.0818 O   0  0  0  0  0  0  0  0  0  0  0  0
   95.9006   49.9366   72.7774 C   0  0  2  0  0  0  0  0  0  0  0  0
   93.5007   47.7487   72.0912 N   0  0  0  0  0  0  0  0  0  0  0  0
   99.7022   46.9896   76.8982 O   0  0  0  0  0  0  0  0  0  0  0  0
   91.0478   45.5583   72.3501 C   0  0  0  0  0  0  0  0  0  0  0  0
   97.1627   45.9216   74.4670 O   0  0  0  0  0  1  0  0  0  0  0  0
   95.5065   48.6245   72.6958 O   0  0  0  0  0  0  0  0  0  0  0  0
   94.3615   51.4083   72.8289 O   0  0  0  0  0  0  0  0  0  0  0  0
   90.4224   44.2620   72.8891 N   0  0  0  0  0  0  0  0  0  0  0  0
   99.6393   44.7980   76.2593 O   0  0  0  0  0  0  0  0  0  0  0  0
   99.6124   46.5849   75.0155 O   0  0  0  0  0  1  0  0  0  0  0  0
   91.1114   47.4167   70.7093 N   0  0  0  0  0  0  0  0  0  0  0  0
   97.1526   46.9844   74.9443 P   0  0  2  0  0  4  0  0  0  0  0  0
   93.3783   46.7309   72.6889 C   0  0  0  0  0  0  0  0  0  0  0  0
   97.3864   48.0839   74.2498 O   0  0  0  0  0  0  0  0  0  0  0  0
   97.2673   49.3824   73.4384 C   0  0  0  0  0  0  0  0  0  0  0  0
   94.2991   50.4596   70.5567 O   0  0  0  0  0  0  0  0  0  0  0  0
   92.3704   50.5427   71.8482 O   0  0  0  0  0  0  0  0  0  0  0  0
  3  2  1  0
  6  1  2  0
  9  3  1  0
 10  2  1  0
 11  7  1  0
 12  4  2  0
 12  6  1  0
 14  2  1  0
 14  9  1  0
 15  3  1  0
 16 12  1  0
 17  7  1  0
 18  7  1  0
 19  1  1  0
 19  4  1  0
 20  7  1  0
 20  8  1  1
 20 13  1  0
 21  4  1  0
 21  5  2  3
 21 10  1  0
 22 20  1  0
  9 23  1  1
 23 22  1  0
  2 24  1  6
 25  3  1  0
M  RAD  4   7   2  13   2  18   2  20   2
M  END
>  <ID>  (1) 
conformer_0

$$$$
