
     RDKit          3D

 24 25  0  0  0  0  0  0  0  0999 V2000
   90.4696   46.9016   71.0680 C   0  0  0  0  0  0  0  0  0  0  0  0
   93.8644   49.2956   71.8240 C   0  0  1  0  0  0  0  0  0  0  0  0
   94.3082   49.9437   72.7036 C   0  0  1  0  0  0  0  0  0  0  0  0
   94.0173   46.7343   72.7415 C   0  0  0  0  0  0  0  0  0  0  0  0
   91.3302   47.6512   70.8551 N   0  0  0  0  0  0  0  0  0  0  0  0
   93.2096   45.6920   72.9985 N   0  0  0  0  0  0  0  0  0  0  0  0
   95.5593   48.7645   71.7270 O   0  0  0  0  0  0  0  0  0  0  0  0
   93.5001   47.6526   72.1290 N   0  0  0  0  0  0  0  0  0  0  0  0
   99.4211   46.7645   75.9624 P   0  0  0  0  0  5  0  0  0  0  0  0
   95.8778   49.9550   72.7728 C   0  0  1  0  0  0  0  0  0  0  0  0
   96.1047   46.9447   76.2401 O   0  0  0  0  0  0  0  0  0  0  0  0
   99.9282   46.6612   76.9140 O   0  0  0  0  0  0  0  0  0  0  0  0
   97.0960   47.5055   74.3836 O   0  0  0  0  0  0  0  0  0  0  0  0
   91.3509   45.7016   72.3076 C   0  0  0  0  0  0  0  0  0  0  0  0
   90.6440   44.2362   72.6475 N   0  0  0  0  0  0  0  0  0  0  0  0
   93.1516   50.8402   72.8193 O   0  0  0  0  0  0  0  0  0  0  0  0
   98.8103   48.5246   75.9376 O   0  0  0  0  0  0  0  0  0  0  0  0
   99.2845   46.5182   74.7361 O   0  0  0  0  0  0  0  0  0  0  0  0
   90.0105   46.0395   71.4170 N   0  0  0  0  0  0  0  0  0  0  0  0
   92.4432   46.9455   72.0413 C   0  0  2  0  0  0  0  0  0  0  0  0
   95.2300   51.4028   72.8886 O   0  0  0  0  0  0  0  0  0  0  0  0
   97.2716   48.9963   72.9251 C   0  0  0  0  0  0  0  0  0  0  0  0
   98.3018   45.4099   76.1663 O   0  0  0  0  0  0  0  0  0  0  0  0
   97.1535   47.0198   75.2496 P   0  0  0  0  0  0  0  0  0  0  0  0
  3  2  1  0
  5  1  3  0
  6  4  2  0
  7  2  1  0
  2  8  1  1
  8  4  1  0
 10  3  1  0
 10  7  1  0
 12  9  1  0
 15 14  2  3
  3 16  1  6
 17  9  1  0
 18  9  1  0
 19  1  1  0
 19 14  1  0
 20  6  1  0
 20  8  1  1
 20 14  1  0
 10 21  1  6
 22 10  1  0
 22 13  1  0
 23  9  1  0
 24  9  1  0
 24 11  1  0
 24 13  1  0
M  END
>  <ID>  (1) 
conformer_0

$$$$
