
     RDKit          3D

 25 25  0  0  0  0  0  0  0  0999 V2000
   90.5218   47.1156   70.6072 C   0  0  0  0  0  0  0  0  0  0  0  0
   94.4259   50.2169   72.4339 C   0  0  0  0  0  0  0  0  0  0  0  0
   97.1382   49.4177   73.4989 C   0  0  0  0  0  0  0  0  0  0  0  0
   92.0644   46.7663   71.8714 C   0  0  0  0  0  0  0  0  0  0  0  0
   91.6472   47.7750   70.6812 N   0  0  0  0  0  0  0  0  0  0  0  0
   92.6230   45.8974   73.2199 N   0  0  0  0  0  0  0  0  0  0  0  0
   89.7559   44.7818   72.9647 N   0  0  0  0  0  0  0  0  0  0  0  0
   94.2239   49.3589   71.9727 C   0  0  1  0  0  0  0  0  0  0  0  0
   89.8184   46.1992   71.0018 N   0  0  0  0  0  0  0  0  0  0  0  0
   95.6877   48.9504   71.7845 O   0  0  0  0  0  0  0  0  0  0  0  0
   96.1285   47.0238   76.0679 O   0  0  0  0  0  0  0  0  0  0  0  0
   99.5876   46.0147   75.9811 P   0  0  0  0  0  5  0  0  0  0  0  0
   93.5954   47.7183   72.2809 N   0  0  0  0  0  0  0  0  0  0  0  0
   90.8085   45.7489   72.3645 C   0  0  0  0  0  0  0  0  0  0  0  0
   99.6936   46.6872   77.0374 O   0  0  0  0  0  0  0  0  0  0  0  0
   96.6106   48.4052   73.8509 O   0  0  0  0  0  0  0  0  0  0  0  0
   93.7452   51.1145   71.1752 O   0  0  0  0  0  0  0  0  0  0  0  0
   98.4520   47.7163   75.3229 O   0  0  0  0  0  0  0  0  0  0  0  0
   99.0163   44.6539   75.9756 O   0  0  0  0  0  0  0  0  0  0  0  0
   97.3569   47.1882   75.0172 P   0  0  0  0  0  0  0  0  0  0  0  0
   95.8527   50.3681   73.2691 C   0  0  0  0  0  0  0  0  0  0  0  0
   93.3149   46.8480   72.8074 C   0  0  0  0  0  0  0  0  0  0  0  0
   94.2167   51.4253   73.3133 O   0  0  0  0  0  0  0  0  0  0  0  0
  100.5898   45.8431   75.1994 O   0  0  0  0  0  0  0  0  0  0  0  0
   97.6990   46.1513   74.3353 O   0  0  0  0  0  0  0  0  0  0  0  0
  5  1  2  0
  5  4  1  0
  8  2  1  0
  9  1  1  0
  8 10  1  1
 13  8  1  0
 14  4  2  0
 14  7  1  0
 14  9  1  0
 15 12  1  0
 16  3  1  0
 17  2  1  0
 18 12  1  0
 19 12  1  0
 20 11  1  0
 20 16  1  0
 20 18  1  0
 21  2  1  0
 21  3  1  0
 22  4  1  0
 22  6  2  3
 22 13  1  0
 23  2  1  0
 24 12  1  0
 25 12  1  0
M  END
>  <ID>  (1) 
conformer_0

$$$$
