
     RDKit          3D

 25 26  0  0  0  0  0  0  0  0999 V2000
   96.6254   49.3180   72.9819 C   0  0  0  0  0  0  0  0  0  0  0  0
   90.4517   47.2272   70.3829 C   0  0  0  0  0  0  0  0  0  0  0  0
   95.5243   50.2357   73.0077 C   0  0  0  0  0  0  0  0  0  0  0  0
   89.9060   46.0527   71.0312 N   0  0  0  0  0  0  0  0  0  0  0  0
   93.2858   46.8679   72.6783 C   0  0  0  0  0  0  0  0  0  0  0  0
   92.6497   45.8451   72.9891 N   0  0  0  0  0  0  0  0  0  0  0  0
   99.1646   46.0038   75.9342 P   0  0  0  0  0  5  0  0  0  0  0  0
   94.1924   50.0569   72.1343 C   0  0  0  0  0  0  0  0  0  0  0  0
   90.1181   44.4466   72.8691 N   0  0  0  0  0  0  0  0  0  0  0  0
   96.0582   47.0932   76.1854 O   0  0  0  0  0  0  0  0  0  0  0  0
   95.6725   51.1346   74.4185 O   0  0  0  0  0  0  0  0  0  0  0  0
   93.5119   51.1158   71.2364 O   0  0  0  0  0  0  0  0  0  0  0  0
   93.3643   47.7316   71.9738 N   0  0  0  0  0  0  0  0  0  0  0  0
   95.3086   48.9424   71.5240 O   0  0  0  0  0  0  0  0  0  0  0  0
   91.4692   47.7917   70.5340 N   0  0  0  0  0  0  0  0  0  0  0  0
   91.0171   45.7486   72.2200 C   0  0  0  0  0  0  0  0  0  0  0  0
   99.8647   46.0948   74.9672 O   0  0  0  0  0  0  0  0  0  0  0  0
   98.5711   44.6014   76.1172 O   0  0  0  0  0  0  0  0  0  0  0  0
   96.2813   48.2407   73.8586 O   0  0  0  0  0  0  0  0  0  0  0  0
   97.0345   47.1632   75.0160 P   0  0  0  0  0  0  0  0  0  0  0  0
   99.4999   46.2399   77.1640 O   0  0  0  0  0  0  0  0  0  0  0  0
   94.0477   49.2902   71.4865 C   0  0  0  0  0  0  0  0  0  0  0  0
   98.4578   47.9563   75.5399 O   0  0  0  0  0  0  0  0  0  0  0  0
   97.3509   46.2122   74.3594 O   0  0  0  0  0  0  0  0  0  0  0  0
   92.1392   46.9768   71.5869 C   0  0  0  0  0  3  0  0  0  0  0  0
  3  1  1  0
  4  2  2  0
  6  5  2  0
  8  3  1  0
 11  3  1  0
 12  8  1  0
 13  5  1  0
 15  2  1  0
 16  4  1  0
 16  6  1  0
 16  9  1  0
 17  7  1  0
 18  7  1  0
 19  1  1  0
 20 10  1  0
 20 19  1  0
 21  7  1  0
 22  8  1  0
 22 13  1  0
 22 14  1  0
 23  7  1  0
 24  7  1  0
 24 20  1  0
 25 13  1  0
 25 15  1  0
 25 16  1  0
M  RAD  1  25   2
M  END
>  <ID>  (1) 
conformer_0

$$$$
