
     RDKit          3D

 25 26  0  0  0  0  0  0  0  0999 V2000
   95.6386   50.1181   73.0885 C   0  0  0  0  0  0  0  0  0  0  0  0
   90.3354   46.7912   70.5185 C   0  0  0  0  0  0  0  0  0  0  0  0
   96.6815   49.1771   72.9051 C   0  0  0  0  0  0  0  0  0  0  0  0
   92.0863   46.9370   71.5219 C   0  0  0  0  0  3  0  0  0  0  0  0
   90.0084   45.8713   71.0288 N   0  0  0  0  0  0  0  0  0  0  0  0
   92.8833   45.7569   72.8260 N   0  0  0  0  0  0  0  0  0  0  0  0
   99.3574   46.2321   75.9583 P   0  0  0  0  0  5  0  0  0  0  0  0
   95.3157   48.8977   71.4218 O   0  0  0  0  0  0  0  0  0  0  0  0
   95.8682   47.2728   76.2261 O   0  0  0  0  0  0  0  0  0  0  0  0
   93.4233   47.7429   72.0352 N   0  0  0  0  0  0  0  0  0  0  0  0
   94.3188   50.0744   72.4212 C   0  0  0  0  0  0  0  0  0  0  0  0
   99.6449   46.2253   77.1442 O   0  0  0  0  0  0  0  0  0  0  0  0
   97.2794   46.1152   74.9364 O   0  0  0  0  0  0  0  0  0  0  0  0
   93.4772   51.0288   71.7834 O   0  0  0  0  0  0  0  0  0  0  0  0
   91.2160   45.5361   72.0567 C   0  0  0  0  0  0  0  0  0  0  0  0
   96.2800   48.3432   74.1182 O   0  0  0  0  0  0  0  0  0  0  0  0
   94.9514   51.4392   73.7811 O   0  0  0  0  0  0  0  0  0  0  0  0
   96.6902   47.4174   75.2634 P   0  0  0  0  0  0  0  0  0  0  0  0
   90.7411   44.0962   72.4715 N   0  0  0  0  0  0  0  0  0  0  0  0
   91.3512   47.5827   70.4876 N   0  0  0  0  0  0  0  0  0  0  0  0
   99.2638   44.4420   75.8207 O   0  0  0  0  0  0  0  0  0  0  0  0
   99.9830   46.3944   75.0435 O   0  0  0  0  0  0  0  0  0  0  0  0
   98.4077   48.0799   75.7786 O   0  0  0  0  0  0  0  0  0  0  0  0
   93.2812   46.7640   72.6174 C   0  0  0  0  0  0  0  0  0  0  0  0
   94.0711   49.1540   71.7366 C   0  0  0  0  0  0  0  0  0  0  0  0
  3  1  1  0
  5  2  2  0
 11  1  1  0
 12  7  1  0
 13  7  1  0
 14 11  1  0
 15  4  1  0
 15  5  1  0
 15  6  1  0
 16  3  1  0
 17  1  1  0
 18  9  1  0
 18 13  1  0
 18 16  1  0
 19 15  1  0
 20  2  1  0
 20  4  1  0
 21  7  1  0
 22  7  1  0
 23  7  1  0
 24  4  1  0
 24  6  2  0
 24 10  1  0
 25  8  1  0
 25 10  1  0
 25 11  1  0
M  RAD  1   4   2
M  END
>  <ID>  (1) 
conformer_0

$$$$
