
     RDKit          3D

 26 25  0  0  0  0  0  0  0  0999 V2000
   94.2500   49.7889   72.6444 C   0  0  0  0  0  0  0  0  0  0  0  0
   90.3903   47.0447   70.5745 C   0  0  0  0  0  0  0  0  0  0  0  0
   95.6562   50.0192   72.8817 C   0  0  2  0  0  0  0  0  0  0  0  0
   92.6591   45.8471   73.0462 N   0  0  0  0  0  0  0  0  0  0  0  0
   93.1799   46.8261   72.7647 C   0  0  0  0  0  0  0  0  0  0  0  0
   91.5367   47.6485   70.6070 N   0  0  0  0  0  0  0  0  0  0  0  0
   93.3075   47.7455   72.1626 N   0  0  0  0  0  0  0  0  0  0  0  0
   96.1503   47.0254   76.0886 O   0  0  0  0  0  0  0  0  0  0  0  0
   99.3523   46.3363   75.8427 P   0  0  0  0  0  5  0  0  0  0  0  0
   95.2555   48.8587   71.5132 O   0  0  0  0  0  0  0  0  0  0  0  0
   99.6619   46.7451   76.9955 O   0  0  0  0  0  0  0  0  0  0  0  0
   90.2486   44.3399   72.8270 N   0  0  0  0  0  0  0  0  0  0  0  0
   96.9577   49.2309   73.0900 C   0  0  0  0  0  0  0  0  0  0  0  0
   89.8971   46.0646   71.1186 N   0  0  0  0  0  0  0  0  0  0  0  0
   90.8552   45.5190   72.3367 C   0  0  0  0  0  0  0  0  0  0  0  0
   99.8462   46.3138   74.7451 O   0  0  0  0  0  0  0  0  0  0  0  0
   93.8700   51.0208   71.3076 O   0  0  0  0  0  0  0  0  0  0  0  0
   96.4164   48.2634   73.5917 O   0  0  0  0  0  0  0  0  0  0  0  0
   95.2485   51.2967   73.5489 O   0  0  0  0  0  0  0  0  0  0  0  0
   96.8902   47.0932   75.0009 P   0  0  0  0  0  0  0  0  0  0  0  0
   99.1112   44.9010   76.0606 O   0  0  0  0  0  0  0  0  0  0  0  0
   96.9445   45.9255   74.3565 O   0  0  0  0  0  0  0  0  0  0  0  0
   92.0424   46.7630   71.7161 C   0  0  0  0  0  0  0  0  0  0  0  0
   93.9986   49.1112   71.6934 C   0  0  2  0  0  0  0  0  0  0  0  0
   92.9798   50.7229   73.2085 O   0  0  0  0  0  0  0  0  0  0  0  0
   98.3726   47.8243   74.9745 O   0  0  0  0  0  0  0  0  0  0  0  0
  3  1  1  0
  5  4  2  3
  6  2  1  0
  7  5  1  0
 11  9  1  0
 13  3  1  0
 14  2  2  3
 15 12  1  0
 15 14  1  0
 16  9  1  0
 17  1  1  0
 18 13  1  0
  3 19  1  1
 20  8  1  0
 20 18  1  0
 21  9  1  0
 22  9  1  0
 22 20  1  0
 23  5  1  0
 23  6  2  3
 24  1  1  0
 24  7  1  0
 24 10  1  1
 25  1  1  0
 26  9  1  0
M  END
>  <ID>  (1) 
conformer_0

$$$$
