
     RDKit          3D

 25 25  0  0  0  0  0  0  0  0999 V2000
   96.1531   50.1205   73.0412 C   0  0  0  0  0  0  0  0  0  0  0  0
   90.5078   47.1732   70.5527 C   0  0  0  0  0  0  0  0  0  0  0  0
   97.2325   49.1613   73.0456 C   0  0  0  0  0  0  0  0  0  0  0  0
   92.1709   46.7015   71.7859 C   0  0  0  0  0  0  0  0  0  0  0  0
   91.5742   47.7596   70.7443 N   0  0  0  0  0  0  0  0  0  0  0  0
   97.1347   47.3289   75.2563 P   0  0  2  0  0  4  0  0  0  0  0  0
   93.6202   47.5329   72.2488 N   0  0  0  0  0  0  0  0  0  0  0  0
   95.5690   48.6018   71.8741 O   0  0  0  0  0  0  0  0  0  0  0  0
   92.8380   45.6680   72.9496 N   0  0  0  0  0  0  0  0  0  0  0  0
   95.8864   47.1684   76.1095 O   0  0  0  0  0  0  0  0  0  0  0  0
   94.5054   50.0510   72.6774 C   0  0  0  0  0  0  0  0  0  0  0  0
   99.8013   46.2866   77.0891 O   0  0  0  0  0  0  0  0  0  0  0  0
   97.4969   49.0221   74.9252 O   0  0  0  0  0  0  0  0  0  0  0  0
   90.0150   44.6377   72.6052 N   0  0  0  0  0  0  0  0  0  0  0  0
   90.9572   45.6191   72.1135 C   0  0  0  0  0  0  0  0  0  0  0  0
   93.2831   50.8139   71.9275 O   0  0  0  0  0  0  0  0  0  0  0  0
   97.0138   46.5708   74.1176 O   0  0  0  0  0  1  0  0  0  0  0  0
   89.8626   46.1696   70.8792 N   0  0  0  0  0  0  0  0  0  0  0  0
  100.1757   46.4587   74.8944 O   0  0  0  0  0  1  0  0  0  0  0  0
   99.0144   44.5144   75.7389 O   0  0  0  0  0  0  0  0  0  0  0  0
   99.3769   46.1128   76.0318 P   0  0  0  0  0  4  0  0  0  0  0  0
   93.5297   46.6286   72.7257 C   0  0  0  0  0  0  0  0  0  0  0  0
   95.1607   51.5288   72.8346 O   0  0  0  0  0  0  0  0  0  0  0  0
   94.1772   49.1434   72.1061 C   0  0  2  0  0  0  0  0  0  0  0  0
   98.1809   46.9301   75.8986 O   0  0  0  0  0  0  0  0  0  0  0  0
  3  1  1  0
  5  2  2  0
  5  4  1  0
  6 10  1  1
 11  1  1  0
 13  3  1  0
 13  6  1  0
 15  4  2  0
 15 14  1  0
 16 11  1  0
 17  6  1  0
 18  2  1  0
 18 15  1  0
 21 12  1  0
 21 19  1  0
 21 20  1  0
 22  4  1  0
 22  7  1  0
 22  9  2  3
 23 11  1  0
 24  7  1  0
 24  8  1  6
 24 11  1  0
 25  6  1  0
 25 21  1  0
M  RAD  4   6   2  17   2  19   2  21   2
M  END
>  <ID>  (1) 
conformer_0

$$$$
