
     RDKit          3D

 24 26  0  0  0  0  0  0  0  0999 V2000
   90.4107   47.1610   70.5213 C   0  0  0  0  0  0  0  0  0  0  0  0
   94.2755   50.3361   72.4871 C   0  0  0  0  0  0  0  0  0  0  0  0
   94.2703   49.5242   71.9562 C   0  0  0  0  0  0  0  0  0  0  0  0
   93.8643   47.0466   73.0309 C   0  0  0  0  0  0  0  0  0  0  0  0
   91.6181   47.8894   70.8091 N   0  0  0  0  0  0  0  0  0  0  0  0
   93.1215   45.7844   72.8505 N   0  0  0  0  0  0  0  0  0  0  0  0
   93.6010   47.9430   72.2320 N   0  0  0  0  0  0  0  0  0  0  0  0
   95.7095   48.7560   71.8161 O   0  0  0  0  0  0  0  0  0  0  0  0
   98.2901   46.8657   75.7196 P   0  0  0  0  0  5  0  0  0  0  0  0
   97.1594   49.0489   72.9196 C   0  0  0  0  0  0  0  0  0  0  0  0
   99.5627   46.2974   77.0749 O   0  0  0  0  0  0  0  0  0  0  0  0
   98.4536   48.6285   76.0591 O   0  0  0  0  0  0  0  0  0  0  0  0
   93.6414   51.2052   71.3572 O   0  0  0  0  0  0  0  0  0  0  0  0
   97.7525   45.1562   76.0436 O   0  0  0  0  0  0  0  0  0  0  0  0
   90.5872   44.4646   72.7080 N   0  0  0  0  0  0  0  0  0  0  0  0
   92.3238   47.5453   71.6261 C   0  0  0  0  0  0  0  0  0  0  0  0
   90.1662   46.0878   71.1043 N   0  0  0  0  0  0  0  0  0  0  0  0
   95.1243   51.5226   73.2825 O   0  0  0  0  0  0  0  0  0  0  0  0
   99.0543   46.3830   74.8891 O   0  0  0  0  0  0  0  0  0  0  0  0
   96.1015   46.9994   76.0636 O   0  0  0  0  0  0  0  0  0  0  0  0
   97.2371   48.1357   74.2666 O   0  0  0  0  0  0  0  0  0  0  0  0
   95.9690   50.0893   72.8599 C   0  0  0  0  0  0  0  0  0  0  0  0
   90.8607   45.8336   72.1175 C   0  0  0  0  0  0  0  0  0  0  0  0
   92.4272   46.1195   72.2059 C   0  0  0  0  0  0  0  0  0  0  0  0
  3  2  1  0
  5  1  2  0
  6  4  2  0
  7  3  1  0
  7  4  1  0
  8  3  1  0
 11  9  1  0
 13  2  1  0
 14  9  1  0
 16  5  1  0
 16  7  1  0
 17  1  1  0
 18  2  1  0
 19  9  1  0
 19 12  1  0
 20  9  1  0
 21  9  1  0
 21 10  1  0
 22  2  1  0
 22  8  1  0
 22 10  1  0
 23 15  1  0
 23 17  2  0
 24  6  1  0
 24 16  2  0
 24 23  1  0
M  END
>  <ID>  (1) 
conformer_0

$$$$
