
     RDKit          3D

 26 28  0  0  0  0  0  0  0  0999 V2000
   94.3926   49.1928   71.8397 C   0  0  0  0  0  0  0  0  0  0  0  0
   90.4211   47.3115   70.2474 C   0  0  0  0  0  0  0  0  0  0  0  0
   94.3496   50.1964   72.3902 C   0  0  0  0  0  0  0  0  0  0  0  0
   92.2634   47.3551   71.5035 C   0  0  0  0  0  0  0  0  0  0  0  0
   91.5826   47.7551   70.6634 N   0  0  0  0  0  0  0  0  0  0  0  0
   92.7829   45.8358   73.1555 N   0  0  0  0  0  0  0  0  0  0  0  0
   93.5027   47.7765   72.2743 N   0  0  0  0  0  0  0  0  0  0  0  0
   95.7875   50.2859   72.9249 C   0  0  0  0  0  0  0  0  0  0  0  0
   95.9932   46.8442   75.9648 O   0  0  0  0  0  0  0  0  0  0  0  0
   99.3491   46.3859   75.9539 P   0  0  0  0  0  5  0  0  0  0  0  0
   99.7921   46.1228   76.9985 O   0  0  0  0  0  0  0  0  0  0  0  0
   90.2262   44.5293   72.6497 N   0  0  0  0  0  0  0  0  0  0  0  0
   98.7146   48.5784   76.0801 O   0  0  0  0  0  0  0  0  0  0  0  0
   90.6234   45.7465   71.9611 C   0  0  0  0  0  0  0  0  0  0  0  0
   95.5526   48.5321   72.3087 O   0  0  0  0  0  0  0  0  0  0  0  0
   93.7197   50.7714   71.0498 O   0  0  0  0  0  0  0  0  0  0  0  0
   89.9325   46.1134   70.8493 N   0  0  0  0  0  0  0  0  0  0  0  0
  100.0430   46.5020   74.8884 O   0  0  0  0  0  0  0  0  0  0  0  0
   97.9849   45.0064   75.7441 O   0  0  0  0  0  0  0  0  0  0  0  0
   92.0457   46.1409   72.3358 C   0  0  0  0  0  0  0  0  0  0  0  0
   94.9414   51.6164   72.6147 O   0  0  0  0  0  0  0  0  0  0  0  0
   96.8965   48.6960   74.2180 O   0  0  0  0  0  0  0  0  0  0  0  0
   97.0523   49.2632   72.9593 C   0  0  0  0  0  0  0  0  0  0  0  0
   97.1906   47.2248   75.1916 P   0  0  0  0  0  0  0  0  0  0  0  0
   97.8281   46.7812   74.6144 O   0  0  0  0  0  0  0  0  0  0  0  0
   93.6480   47.0204   73.1925 C   0  0  0  0  0  0  0  0  0  0  0  0
  3  1  1  0
  5  2  2  0
  5  4  1  0
  7  1  1  0
  7  4  1  0
  8  3  1  0
 11 10  1  0
 13 10  1  0
 14 12  1  0
 15  1  1  0
 16  3  1  0
 17  2  1  0
 17 14  2  0
 18 10  1  0
 19 10  1  0
 20  4  2  0
 20  6  1  0
 20 14  1  0
 21  3  1  0
 23  8  1  0
 23 15  1  0
 23 22  1  0
 24  9  1  0
 24 22  1  0
 25 10  1  0
 25 24  1  0
 26  6  2  0
 26  7  1  0
M  END
>  <ID>  (1) 
conformer_0

$$$$
