
     RDKit          3D

 25 25  0  0  0  0  0  0  0  0999 V2000
   90.4697   47.2794   70.6092 C   0  0  0  0  0  0  0  0  0  0  0  0
   94.3971   50.2434   72.4592 C   0  0  1  0  0  0  0  0  0  0  0  0
   94.0622   49.3767   71.8895 C   0  0  2  0  0  0  0  0  0  0  0  0
   91.8392   46.8359   71.6742 C   0  0  0  0  0  0  0  0  0  0  0  0
   91.2954   47.9257   70.5992 N   0  0  0  0  0  0  0  0  0  0  0  0
   92.5472   45.9375   72.9296 N   0  0  0  0  0  0  0  0  0  0  0  0
   93.3152   47.9183   72.1307 N   0  0  0  0  0  0  0  0  0  0  0  0
   95.7464   50.2915   72.8681 C   0  0  1  0  0  0  0  0  0  0  0  0
   95.8913   47.1697   76.2377 O   0  0  0  0  0  0  0  0  0  0  0  0
   96.9317   46.9381   75.1005 P   0  0  0  0  0  0  0  0  0  0  0  0
   95.3137   48.9267   71.5960 O   0  0  0  0  0  0  0  0  0  0  0  0
   90.7350   45.6539   72.1071 C   0  0  0  0  0  0  0  0  0  0  0  0
   89.7738   46.0451   70.8534 N   0  0  0  0  0  0  0  0  0  0  0  0
   99.7723   46.9338   76.9625 O   0  0  0  0  0  0  0  0  0  0  0  0
   90.1854   44.4628   72.6188 N   0  0  0  0  0  0  0  0  0  0  0  0
   94.0095   51.3875   71.4953 O   0  0  0  0  0  0  0  0  0  0  0  0
   96.9867   48.3090   74.1129 O   0  0  0  0  0  0  0  0  0  0  0  0
   99.5759   45.9704   76.2683 P   0  0  0  0  0  5  0  0  0  0  0  0
   98.2176   46.8446   75.3061 O   0  0  0  0  0  0  0  0  0  0  0  0
   99.2269   44.7163   76.3303 O   0  0  0  0  0  0  0  0  0  0  0  0
   94.8893   51.5167   73.6659 O   0  0  0  0  0  0  0  0  0  0  0  0
  100.6045   45.8982   75.2952 O   0  0  0  0  0  0  0  0  0  0  0  0
   96.2649   45.9004   74.3794 O   0  0  0  0  0  0  0  0  0  0  0  0
   96.8328   49.1052   72.9863 C   0  0  0  0  0  0  0  0  0  0  0  0
   93.0744   47.0255   72.6321 C   0  0  0  0  0  0  0  0  0  0  0  0
  3  2  1  0
  5  1  1  0
  5  4  2  0
  7  3  1  0
  8  2  1  0
 10  9  1  0
  3 11  1  1
 12  4  1  0
 13  1  1  0
 13 12  2  0
 15 12  1  0
  2 16  1  6
 17 10  1  0
 18 14  1  0
 19 10  1  0
 19 18  1  0
 20 18  1  0
  8 21  1  1
 22 18  1  0
 23 18  1  0
 24  8  1  0
 24 17  1  0
 25  4  1  0
 25  6  2  3
 25  7  1  0
M  END
>  <ID>  (1) 
conformer_0

$$$$
