
     RDKit          3D

 26 28  0  0  0  0  0  0  0  0999 V2000
   90.4426   47.1608   70.6561 C   0  0  0  0  0  0  0  0  0  0  0  0
   94.2619   49.3935   71.8349 C   0  0  0  0  0  0  0  0  0  0  0  0
   94.5004   50.0013   72.3963 C   0  0  0  0  0  0  0  0  0  0  0  0
   92.2403   46.1406   72.4612 C   0  0  0  0  0  0  0  0  0  0  0  0
   89.9921   46.0066   71.3733 N   0  0  0  0  0  0  0  0  0  0  0  0
   93.2064   45.7740   73.0032 N   0  0  0  0  0  0  0  0  0  0  0  0
   95.7957   48.8035   71.6163 O   0  0  0  0  0  0  0  0  0  0  0  0
   93.6995   47.7165   72.3177 N   0  0  0  0  0  0  0  0  0  0  0  0
   99.3964   46.0916   76.1559 P   0  0  0  0  0  4  0  0  0  0  0  0
   97.2329   49.0169   73.2063 C   0  0  0  0  0  0  0  0  0  0  0  0
   90.7747   44.1676   72.7351 N   0  0  0  0  0  0  0  0  0  0  0  0
   96.2858   46.7198   76.1553 O   0  0  0  0  0  0  0  0  0  0  0  0
   90.9233   45.5558   72.2045 C   0  0  0  0  0  0  0  0  0  0  0  0
   99.2267   46.3039   74.7293 O   0  0  0  0  0  1  0  0  0  0  0  0
   99.9121   46.2413   76.9813 O   0  0  0  0  0  0  0  0  0  0  0  0
   91.4511   47.6325   70.8657 N   0  0  0  0  0  0  0  0  0  0  0  0
   94.0009   51.1623   71.0739 O   0  0  0  0  0  0  0  0  0  0  0  0
   97.0467   47.9389   74.0760 O   0  0  0  0  0  0  0  0  0  0  0  0
   95.4925   51.3786   73.0508 O   0  0  0  0  0  0  0  0  0  0  0  0
   92.4619   47.3456   71.7792 C   0  0  0  0  0  0  0  0  0  0  0  0
   96.0353   49.9117   72.7965 C   0  0  0  0  0  0  0  0  0  0  0  0
   93.0813   50.7455   73.1213 O   0  0  0  0  0  0  0  0  0  0  0  0
   97.3350   47.2102   75.1697 P   0  0  0  0  0  0  0  0  0  0  0  0
   98.5097   44.8489   76.0823 O   0  0  0  0  0  0  0  0  0  0  0  0
   98.4453   47.8044   75.9451 O   0  0  0  0  0  0  0  0  0  0  0  0
   94.1455   46.8851   73.0063 C   0  0  0  0  0  0  0  0  0  0  0  0
  3  2  1  0
  5  1  2  0
  6  4  1  0
  7  2  1  0
  8  2  1  0
 13  4  2  0
 13  5  1  0
 13 11  1  0
 14  9  1  0
 15  9  1  0
 16  1  1  0
 17  3  1  0
 18 10  1  0
 20  4  1  0
 20  8  1  0
 20 16  2  0
 21  3  1  0
 21  7  1  0
 21 10  1  0
 21 19  1  0
 22  3  1  0
 23 12  1  0
 23 18  1  0
 24  9  1  0
 25  9  1  0
 25 23  1  0
 26  6  2  0
 26  8  1  0
M  RAD  2   9   2  14   2
M  END
>  <ID>  (1) 
conformer_0

$$$$
