
     RDKit          3D

 25 25  0  0  0  0  0  0  0  0999 V2000
   90.5126   47.2165   70.6626 C   0  0  0  0  0  0  0  0  0  0  0  0
   95.9477   50.0393   73.1673 C   0  0  2  0  0  0  0  0  0  0  0  0
   94.5911   50.0334   72.6195 C   0  0  0  0  0  0  0  0  0  0  0  0
   92.1810   46.9625   71.6704 C   0  0  0  0  0  0  0  0  0  0  0  0
   89.9426   46.1058   71.0762 N   0  0  0  0  0  0  0  0  0  0  0  0
   93.6527   47.8721   72.0711 N   0  0  0  0  0  0  0  0  0  0  0  0
   92.9156   45.8476   72.8787 N   0  0  0  0  0  0  0  0  0  0  0  0
   95.7093   48.8853   71.6478 O   0  0  0  0  0  0  0  0  0  0  0  0
   99.3888   46.4661   75.9502 P   0  0  0  0  0  4  0  0  0  0  0  0
   97.0937   49.1406   73.0867 C   0  0  0  0  0  0  0  0  0  0  0  0
   90.6097   44.3589   72.4896 N   0  0  0  0  0  0  0  0  0  0  0  0
   91.1518   45.7427   72.0807 C   0  0  0  0  0  0  0  0  0  0  0  0
   94.3282   51.1877   71.1992 O   0  0  0  0  0  0  0  0  0  0  0  0
   99.2706   47.0002   76.9754 O   0  0  0  0  0  0  0  0  0  0  0  0
   95.2353   51.3031   73.9892 O   0  0  0  0  0  0  0  0  0  0  0  0
   91.5285   47.7575   70.6417 N   0  0  0  0  0  0  0  0  0  0  0  0
   99.8665   46.7178   75.1051 O   0  0  0  0  0  1  0  0  0  0  0  0
   96.8133   46.0853   74.9044 O   0  0  0  0  0  0  0  0  0  0  0  0
   96.8837   46.9548   75.1424 P   0  0  0  0  0  0  0  0  0  0  0  0
   94.3168   49.3421   71.6715 C   0  0  2  0  0  0  0  0  0  0  0  0
   95.9611   47.0694   76.3206 O   0  0  0  0  0  0  0  0  0  0  0  0
   93.4677   46.8837   72.5380 C   0  0  0  0  0  0  0  0  0  0  0  0
   99.1140   44.8656   76.2907 O   0  0  0  0  0  0  0  0  0  0  0  0
   97.2064   48.0608   74.4281 O   0  0  0  0  0  0  0  0  0  0  0  0
   93.0016   50.7519   72.6722 O   0  0  0  0  0  0  0  0  0  0  0  0
  3  2  1  0
  5  1  2  0
 10  2  1  0
 12  4  2  0
 12  5  1  0
 12 11  1  0
 13  3  1  0
 14  9  1  0
  2 15  1  1
 16  1  1  0
 16  4  1  0
 17  9  1  0
 18  9  1  0
 19 18  1  0
 20  3  1  0
 20  6  1  0
 20  8  1  1
 21 19  1  0
 22  4  1  0
 22  6  1  0
 22  7  2  3
 23  9  1  0
 24 10  1  0
 24 19  1  0
 25  3  1  0
M  RAD  2   9   2  17   2
M  END
>  <ID>  (1) 
conformer_0

$$$$
