
     RDKit          3D

 25 26  0  0  0  0  0  0  0  0999 V2000
   91.0064   45.6301   72.2586 C   0  0  0  0  0  0  0  0  0  0  0  0
   95.8069   50.1168   72.6720 C   0  0  0  0  0  0  0  0  0  0  0  0
   96.8699   49.1728   72.7632 C   0  0  0  0  0  0  0  0  0  0  0  0
   93.1907   46.8352   72.6061 C   0  0  0  0  0  0  0  0  0  0  0  0
   91.2820   47.8392   70.6692 N   0  0  0  0  0  0  0  0  0  0  0  0
   92.7179   45.8305   72.9463 N   0  0  0  0  0  0  0  0  0  0  0  0
   93.2556   47.7744   72.0034 N   0  0  0  0  0  0  0  0  0  0  0  0
   96.7854   47.4673   75.1887 P   0  0  0  0  0  0  0  0  0  0  0  0
   95.8712   47.3263   76.2135 O   0  0  0  0  0  0  0  0  0  0  0  0
   94.4373   49.8377   72.2400 C   0  0  0  0  0  0  0  0  0  0  0  0
   94.3536   51.1474   71.3418 O   0  0  0  0  0  0  0  0  0  0  0  0
   98.7510   44.6158   76.2741 O   0  0  0  0  0  0  0  0  0  0  0  0
   89.8253   46.0104   71.2483 N   0  0  0  0  0  2  0  0  0  0  0  0
   90.3427   44.2894   72.7501 N   0  0  0  0  0  0  0  0  0  0  0  0
   96.6245   48.5721   74.0556 O   0  0  0  0  0  0  0  0  0  0  0  0
   90.2239   46.9539   70.7625 C   0  0  0  0  0  0  0  0  0  0  0  0
   97.0072   46.1193   74.4365 O   0  0  0  0  0  0  0  0  0  0  0  0
   99.0168   45.8589   75.9981 P   0  0  0  0  0  5  0  0  0  0  0  0
   99.9005   45.9560   74.9870 O   0  0  0  0  0  0  0  0  0  0  0  0
   94.5980   51.2323   73.5478 O   0  0  0  0  0  0  0  0  0  0  0  0
   95.1686   48.6126   71.7782 O   0  0  0  0  0  0  0  0  0  0  0  0
   99.5228   46.5239   77.1156 O   0  0  0  0  0  0  0  0  0  0  0  0
   94.0383   49.0979   71.5868 C   0  0  0  0  0  0  0  0  0  0  0  0
   92.0684   46.9892   71.6741 C   0  0  0  0  0  0  0  0  0  0  0  0
   98.0607   47.6990   75.5821 O   0  0  0  0  0  0  0  0  0  0  0  0
  3  2  1  0
  6  1  1  0
  6  4  2  0
  7  4  1  0
  9  8  1  0
 10  2  1  0
 11 10  1  0
 13  1  1  0
 14  1  1  0
 15  3  1  0
 15  8  1  0
 16  5  2  0
 16 13  1  0
 18 12  1  0
 18 17  1  0
 19 18  1  0
 20  2  1  0
 22 18  1  0
 23  7  1  0
 23 10  1  0
 23 21  1  0
 24  1  1  0
 24  4  1  0
 24  5  1  0
 25  8  1  0
 25 18  1  0
M  RAD  1  13   2
M  END
>  <ID>  (1) 
conformer_0

$$$$
