
     RDKit          3D

 24 25  0  0  0  0  0  0  0  0999 V2000
   94.4820   49.9194   72.4357 C   0  0  0  0  0  0  0  0  0  0  0  0
   90.4386   46.3518   70.6866 C   0  0  0  0  0  0  0  0  0  0  0  0
   94.2811   49.0071   71.7714 C   0  0  2  0  0  0  0  0  0  0  0  0
   92.1097   46.9215   71.7895 C   0  0  0  0  0  0  0  0  0  0  0  0
   93.4053   47.8463   72.2287 N   0  0  0  0  0  0  0  0  0  0  0  0
   89.9621   45.7352   71.3418 N   0  0  0  0  0  0  0  0  0  0  0  0
   99.1136   45.9863   76.0186 P   0  0  0  0  0  5  0  0  0  0  0  0
   99.5267   46.6339   77.1608 O   0  0  0  0  0  0  0  0  0  0  0  0
   95.9266   50.1396   73.0317 C   0  0  0  0  0  0  0  0  0  0  0  0
   95.5925   48.6302   71.6443 O   0  0  0  0  0  0  0  0  0  0  0  0
   97.1209   48.4406   73.8280 O   0  0  0  0  0  0  0  0  0  0  0  0
   93.0929   46.2037   73.0696 N   0  0  0  0  0  0  0  0  0  0  0  0
   94.5442   51.2221   73.6624 O   0  0  0  0  0  0  0  0  0  0  0  0
   93.4645   47.0045   72.8508 C   0  0  0  0  0  0  0  0  0  0  0  0
   96.3193   47.3498   75.9498 O   0  0  0  0  0  0  0  0  0  0  0  0
   98.9669   47.1595   74.7259 O   0  0  0  0  0  0  0  0  0  0  0  0
   91.4882   47.1482   70.6008 N   0  0  0  0  0  0  0  0  0  0  0  0
   94.4862   50.9770   71.3523 O   0  0  0  0  0  0  0  0  0  0  0  0
   91.2272   45.8293   72.2902 C   0  0  0  0  0  0  0  0  0  0  0  0
   98.0703   48.0987   74.9349 P   0  0  0  0  0  0  0  0  0  0  0  0
   98.0079   45.4329   76.0705 O   0  0  0  0  0  0  0  0  0  0  0  0
  100.1726   45.3134   75.4886 O   0  0  0  0  0  0  0  0  0  0  0  0
   98.6429   49.1966   75.2958 O   0  0  0  0  0  0  0  0  0  0  0  0
   96.8081   49.0820   72.7027 C   0  0  2  0  0  0  0  0  0  0  0  0
  3  1  1  0
  3  5  1  1
  5  4  1  0
  6  2  2  0
  8  7  1  0
  9  1  1  0
 10  3  1  0
 13  1  1  0
 14  5  1  0
 14 12  2  3
 16  7  1  0
 17  2  1  0
 17  4  1  0
 18  1  1  0
 19  4  2  0
 19  6  1  0
 20 11  1  0
 20 15  1  0
 21  7  1  0
 22  7  1  0
 23  7  1  0
 23 20  1  0
 24  9  1  0
 24 10  1  0
 24 11  1  1
M  END
>  <ID>  (1) 
conformer_0

$$$$
