
     RDKit          3D

 26 28  0  0  0  0  0  0  0  0999 V2000
   92.2954   46.2292   72.2004 C   0  0  0  0  0  0  0  0  0  0  0  0
   96.5686   49.5011   72.9292 C   0  0  0  0  0  0  0  0  0  0  0  0
   97.5987   48.5604   73.4914 C   0  0  0  0  0  0  0  0  0  0  0  0
   93.8969   46.8861   72.7644 C   0  0  0  0  0  0  0  0  0  0  0  0
   93.0563   45.8261   72.9313 N   0  0  0  0  0  0  0  0  0  0  0  0
   91.3074   47.8166   70.6717 N   0  0  0  0  0  0  0  0  0  0  0  0
   99.5658   46.2640   76.2434 P   0  0  0  0  0  4  0  0  0  0  0  0
   95.2894   50.3085   73.0436 C   0  0  0  0  0  0  0  0  0  0  0  0
   95.5806   48.9077   71.6824 O   0  0  0  0  0  0  0  0  0  0  0  0
   93.4077   47.9125   71.8969 N   0  0  0  0  0  0  0  0  0  0  0  0
   96.1933   46.9926   76.1649 O   0  0  0  0  0  0  0  0  0  0  0  0
   90.4279   44.3829   72.6998 N   0  0  0  0  0  0  0  0  0  0  0  0
  100.0517   47.0231   77.0655 O   0  0  0  0  0  0  0  0  0  0  0  0
   90.8983   45.5731   72.1399 C   0  0  0  0  0  0  0  0  0  0  0  0
   98.0598   47.7049   74.9096 O   0  0  0  0  0  0  0  0  0  0  0  0
   93.1006   51.0819   71.9514 O   0  0  0  0  0  0  0  0  0  0  0  0
   99.9892   46.0343   75.0765 O   0  0  0  0  0  1  0  0  0  0  0  0
   95.0065   51.5160   73.3214 O   0  0  0  0  0  0  0  0  0  0  0  0
   90.0503   45.9624   71.0539 N   0  0  0  0  0  0  0  0  0  0  0  0
   93.8520   50.1059   72.3865 C   0  0  0  0  0  0  0  0  0  0  0  0
   97.3265   45.5626   75.0128 O   0  0  0  0  0  0  0  0  0  0  0  0
   90.3671   47.0979   70.6192 C   0  0  0  0  0  0  0  0  0  0  0  0
   97.2986   46.7219   75.3155 P   0  0  0  0  0  0  0  0  0  0  0  0
   94.1404   49.1884   71.5644 C   0  0  0  0  0  0  0  0  0  0  0  0
   98.8431   45.4972   76.9102 O   0  0  0  0  0  0  0  0  0  0  0  0
   92.2555   47.5843   71.3893 C   0  0  0  0  0  0  0  0  0  0  0  0
  3  2  1  0
  5  1  1  0
  5  4  2  0
  8  2  1  0
  9  2  1  0
 10  4  1  0
 13  7  1  0
 14  1  2  0
 14 12  1  0
 15  3  1  0
 17  7  1  0
 18  8  1  0
 19 14  1  0
 20  8  1  0
 20 16  1  0
 21  7  1  0
 22  6  1  0
 22 19  2  0
 23 11  1  0
 23 15  1  0
 23 21  1  0
 24  9  1  0
 24 10  1  0
 24 20  1  0
 25  7  1  0
 26  1  1  0
 26  6  2  0
 26 10  1  0
M  RAD  2   7   2  17   2
M  END
>  <ID>  (1) 
conformer_0

$$$$
