
     RDKit          3D

 25 25  0  0  0  0  0  0  0  0999 V2000
   94.2643   50.2857   72.6443 C   0  0  1  0  0  0  0  0  0  0  0  0
   90.7515   46.5800   70.6185 C   0  0  0  0  0  0  0  0  0  0  0  0
   95.6424   50.2170   73.2604 C   0  0  2  0  0  0  0  0  0  0  0  0
   93.2229   46.7597   72.9113 C   0  0  1  0  0  0  0  0  0  0  0  0
   91.7900   47.3858   70.5781 N   0  0  0  0  0  0  0  0  0  0  0  0
   96.9574   48.9844   73.0396 C   0  0  0  0  0  0  0  0  0  0  0  0
   96.2831   47.1285   76.2704 O   0  0  0  0  0  0  0  0  0  0  0  0
   95.4183   48.7933   71.6861 O   0  0  0  0  0  0  0  0  0  0  0  0
   99.5865   46.4973   75.6791 P   0  0  0  0  0  4  0  0  0  0  0  0
   93.4929   47.6821   72.2155 N   0  0  0  0  0  0  0  0  0  0  0  0
   92.7320   45.8715   73.2197 N   0  0  0  0  0  0  0  0  0  0  0  0
   99.5099   45.8801   76.6399 O   0  0  0  0  0  0  0  0  0  0  0  0
   94.9490   51.5265   74.0865 O   0  0  0  0  0  0  0  0  0  0  0  0
  100.4729   46.3646   74.6264 O   0  0  0  0  0  1  0  0  0  0  0  0
   91.0090   45.5170   72.3875 C   0  0  0  0  0  0  0  0  0  0  0  0
   90.1033   45.8738   71.0021 N   0  0  0  0  0  0  0  0  0  0  0  0
   93.3914   51.1594   71.6150 O   0  0  0  0  0  0  0  0  0  0  0  0
   96.5552   48.3054   73.9570 O   0  0  0  0  0  0  0  0  0  0  0  0
   90.1458   44.5384   72.8594 N   0  0  0  0  0  0  0  0  0  0  0  0
   95.8052   45.8473   74.3762 O   0  0  0  0  0  0  0  0  0  0  0  0
   97.0066   47.1755   75.1181 P   0  0  0  0  0  0  0  0  0  0  0  0
   94.1236   49.3114   71.9116 C   0  0  1  0  0  0  0  0  0  0  0  0
   98.9744   48.2977   75.6934 O   0  0  0  0  0  0  0  0  0  0  0  0
   92.2429   46.7688   71.8044 C   0  0  0  0  0  0  0  0  0  0  0  0
   98.1294   46.6251   74.5896 O   0  0  0  0  0  0  0  0  0  0  0  0
  3  1  1  0
  5  2  1  0
  6  3  1  0
 10  4  1  0
  4 11  1  6
 12  9  1  0
  3 13  1  1
 14  9  1  0
 16  2  1  0
 16 15  2  3
  1 17  1  6
 18  6  1  0
 19 15  1  0
 20  4  1  0
 21  7  1  0
 21 18  1  0
 22  1  1  0
 22  8  1  1
 22 10  1  0
 23  9  1  0
 24  4  1  0
 24  5  2  3
 24 10  1  0
 25  9  1  0
 25 21  1  0
M  RAD  2   9   2  14   2
M  END
>  <ID>  (1) 
conformer_0

$$$$
