
     RDKit          3D

 14 15  0  0  0  0  0  0  0  0999 V2000
   73.4788   56.7527   41.4032 C   0  0  0  0  0  0  0  0  0  0  0  0
   71.6924   54.2515   42.0120 C   0  0  0  0  0  0  0  0  0  0  0  0
   73.8350   56.3835   40.1968 C   0  0  0  0  0  0  0  0  0  0  0  0
   71.8275   54.5844   43.4059 N   0  0  0  0  0  0  0  0  0  0  0  0
   71.7131   54.4067   44.7195 C   0  0  0  0  0  0  0  0  0  0  0  0
   70.1560   51.8217   45.1503 O   0  0  0  0  0  0  0  0  0  0  0  0
   72.0261   54.7055   41.7684 N   0  0  0  0  0  0  0  0  0  0  0  0
   69.7132   51.0126   42.6116 C   0  0  0  0  0  0  0  0  0  0  0  0
   72.6446   55.5076   41.3129 C   0  0  0  0  0  0  0  0  0  0  0  0
   70.6386   52.8616   41.7744 C   0  0  0  0  0  0  0  0  0  0  0  0
   71.3335   54.1833   45.4416 N   0  0  0  0  0  0  0  0  0  0  0  0
   73.0947   55.0266   39.8620 C   0  0  0  0  0  0  0  0  0  0  0  0
   70.8263   53.1545   44.0164 C   0  0  0  0  0  0  0  0  0  0  0  0
   70.5036   52.6807   42.1943 C   0  0  0  0  0  0  0  0  0  0  0  0
  3  1  1  0
  4  2  2  0
  5  4  1  0
  7  2  1  0
  9  1  1  0
  9  7  1  0
 10  2  1  0
 11  5  1  0
 12  3  1  0
 12  9  1  0
 13  5  1  0
 13  6  1  0
 14  8  1  0
 14 10  2  0
 14 13  1  0
M  END
>  <ID>  (1) 
conformer_0

$$$$
