
     RDKit          3D

 13 14  0  0  0  0  0  0  0  0999 V2000
   71.3992   53.8843   44.3691 C   0  0  0  0  0  0  0  0  0  0  0  0
   71.0731   52.9270   42.0743 C   0  0  0  0  0  0  0  0  0  0  0  0
   73.3768   55.8067   39.7731 C   0  0  0  0  0  0  0  0  0  0  0  0
   72.1931   55.3387   41.7312 N   0  0  0  0  0  0  0  0  0  0  0  0
   71.7766   54.5075   43.6965 N   0  0  0  0  0  0  0  0  0  0  0  0
   73.2569   56.5091   41.9307 C   0  0  0  0  0  0  0  0  0  0  0  0
   71.6683   54.3915   42.3958 C   0  0  0  0  0  0  0  0  0  0  0  0
   73.6377   57.0992   41.2759 C   0  0  0  0  0  0  0  0  0  0  0  0
   71.3754   54.4526   45.5537 N   0  0  0  0  0  0  0  0  0  0  0  0
   70.5331   51.5925   44.5959 O   0  0  0  0  0  0  0  0  0  0  0  0
   70.1768   51.4094   42.4296 C   0  0  0  0  0  0  0  0  0  0  0  0
   71.9245   55.3924   40.3905 C   0  0  0  0  0  0  0  0  0  0  0  0
   70.6234   52.4782   43.7029 C   0  0  2  0  0  0  0  0  0  0  0  0
  5  1  2  0
  6  4  1  0
  7  2  2  0
  7  4  1  0
  7  5  1  0
  8  6  2  3
  9  1  1  0
 11  2  1  0
 12  3  1  0
 12  4  1  0
 13  1  1  0
 13  2  1  0
 13 10  1  1
 13 11  1  0
M  END
>  <ID>  (1) 
conformer_0

$$$$
