
     RDKit          3D

 11 12  0  0  0  0  0  0  0  0999 V2000
   73.5418   55.6774   39.6165 C   0  0  0  0  0  0  0  0  0  0  0  0
   71.3991   53.7458   44.4561 C   0  0  0  0  0  0  0  0  0  0  0  0
   70.8585   52.5296   43.2627 C   0  0  0  0  0  0  0  0  0  0  0  0
   72.0587   55.3199   40.4105 C   0  0  0  0  0  0  0  0  0  0  0  0
   70.0662   51.7611   44.8913 O   0  0  0  0  0  0  0  0  0  0  0  0
   72.1013   55.0544   42.0351 N   0  0  0  0  0  0  0  0  0  0  0  0
   73.7444   56.7211   40.6637 C   0  0  0  0  0  0  0  0  0  0  0  0
   71.5008   53.3524   42.3863 N   0  0  0  0  0  0  0  0  0  0  0  0
   71.6089   54.0928   42.7365 C   0  0  0  0  0  0  0  0  0  0  0  0
   70.5214   51.3119   42.4972 N   0  0  0  0  0  0  0  0  0  0  0  0
   72.7678   56.2871   42.2398 C   0  0  0  0  0  0  0  0  0  0  0  0
  3  2  1  0
  4  1  1  0
  5  2  1  0
  6  4  1  0
  7  1  1  0
  8  3  1  0
  9  2  1  0
  9  6  1  0
  9  8  1  0
 10  3  1  0
 11  6  1  0
 11  7  1  0
M  END
>  <ID>  (1) 
conformer_0

$$$$
