
     RDKit          3D

 13 14  0  0  0  0  0  0  0  0999 V2000
   73.0597   55.3787   39.5183 C   0  0  0  0  0  0  0  0  0  0  0  0
   71.4914   54.2475   42.2527 C   0  0  0  0  0  0  0  0  0  0  0  0
   70.6815   52.9412   41.8806 C   0  0  0  0  0  0  0  0  0  0  0  0
   70.3057   51.9640   45.1663 O   0  0  0  0  0  0  0  0  0  0  0  0
   72.1602   55.0578   41.6756 N   0  0  0  0  0  0  0  0  0  0  0  0
   74.3261   56.3112   39.6858 C   0  0  0  0  0  0  0  0  0  0  0  0
   70.4357   52.5763   43.3540 C   0  0  0  0  0  0  0  0  0  0  0  0
   72.7536   55.6372   40.9935 C   0  0  0  0  0  0  0  0  0  0  0  0
   69.7848   50.8573   42.9358 C   0  0  0  0  0  0  0  0  0  0  0  0
   71.7778   54.6414   43.3342 N   0  0  0  0  0  0  0  0  0  0  0  0
   71.4005   54.2856   45.3520 N   0  0  0  0  0  0  0  0  0  0  0  0
   71.3771   53.8052   44.1653 C   0  0  0  0  0  0  0  0  0  0  0  0
   73.6753   56.8472   41.3486 C   0  0  0  0  0  0  0  0  0  0  0  0
  3  2  1  0
  5  2  1  0
  6  1  1  0
  7  3  1  0
  7  4  1  0
  8  1  1  0
  8  5  1  0
  9  7  1  0
 10  2  2  0
 12  7  1  0
 12 10  1  0
 12 11  1  0
 13  6  1  0
 13  8  1  0
M  END
>  <ID>  (1) 
conformer_0

$$$$
