
     RDKit          3D

 13 13  0  0  0  0  0  0  0  0999 V2000
   73.1799   55.3490   39.4998 C   0  0  0  0  0  0  0  0  0  0  0  0
   71.3862   53.5910   44.2361 C   0  0  0  0  0  0  0  0  0  0  0  0
   72.1239   54.5747   43.0496 N   0  0  0  0  0  0  0  0  0  0  0  0
   71.9853   55.1694   41.4949 N   0  0  0  0  0  0  0  0  0  0  0  0
   73.4658   57.1673   41.5566 C   0  0  0  0  0  0  0  0  0  0  0  0
   72.7468   56.5417   41.8461 C   0  0  0  0  0  0  0  0  0  0  0  0
   70.4502   51.4409   44.9833 O   0  0  0  0  0  0  0  0  0  0  0  0
   71.4476   54.3506   45.2361 N   0  0  0  0  0  0  0  0  0  0  0  0
   71.5207   53.8588   42.1565 C   0  0  0  0  0  0  0  0  0  0  0  0
   70.9904   52.9049   41.7362 C   0  0  0  0  0  0  0  0  0  0  0  0
   70.6789   52.1891   42.9757 C   0  0  0  0  0  0  0  0  0  0  0  0
   71.8105   55.2066   40.3110 C   0  0  0  0  0  0  0  0  0  0  0  0
   73.9549   56.5102   39.9876 C   0  0  0  0  0  0  0  0  0  0  0  0
  3  2  1  0
  6  4  1  0
  6  5  1  0
  8  2  1  0
  9  3  1  0
  9  4  1  0
 10  9  1  0
 11  7  2  0
 11 10  2  0
 12  1  1  0
 12  4  1  0
 13  1  1  0
 13  5  1  0
M  END
>  <ID>  (1) 
conformer_0

$$$$
