
     RDKit          3D

 12 13  0  0  0  0  0  0  0  0999 V2000
   71.5404   53.8099   44.0870 C   0  0  0  0  0  0  0  0  0  0  0  0
   73.6620   56.7024   40.4982 C   0  0  0  0  0  0  0  0  0  0  0  0
   73.3163   56.4192   42.1689 C   0  0  0  0  0  0  0  0  0  0  0  0
   72.3303   55.1718   41.8979 N   0  0  0  0  0  0  0  0  0  0  0  0
   71.6355   54.6351   45.2570 N   0  0  0  0  0  0  0  0  0  0  0  0
   70.6995   52.2991   43.0636 C   0  0  0  0  0  0  0  0  0  0  0  0
   70.3102   51.6965   44.2949 O   0  0  0  0  0  0  0  0  0  0  0  0
   73.2997   55.3788   39.7882 C   0  0  0  0  0  0  0  0  0  0  0  0
   71.2106   52.7880   41.6802 C   0  0  0  0  0  0  0  0  0  0  0  0
   71.5891   54.0008   42.3523 C   0  0  0  0  0  0  0  0  0  0  0  0
   71.3589   53.7148   43.6433 N   0  0  0  0  0  0  0  0  0  0  0  0
   72.2572   55.2258   40.7227 C   0  0  0  0  0  0  0  0  0  0  0  0
  3  2  1  0
  4  3  1  0
  5  1  1  0
  7  6  2  0
  8  2  1  0
  9  6  1  0
 10  4  1  0
 10  9  2  0
 11  1  1  0
 11  6  1  0
 11 10  1  0
 12  4  1  0
 12  8  1  0
M  END
>  <ID>  (1) 
conformer_0

$$$$
