
     RDKit          3D

 14 15  0  0  0  0  0  0  0  0999 V2000
   73.7419   57.1388   40.9539 C   0  0  0  0  0  0  0  0  0  0  0  0
   71.4067   54.2272   42.4703 C   0  0  0  0  0  0  0  0  0  0  0  0
   70.5692   53.0480   41.9272 C   0  0  0  0  0  0  0  0  0  0  0  0
   73.2334   56.5424   41.8355 C   0  0  0  0  0  0  0  0  0  0  0  0
   72.0879   55.2718   41.7132 N   0  0  0  0  0  0  0  0  0  0  0  0
   70.5392   52.3226   43.2916 C   0  0  0  0  0  0  0  0  0  0  0  0
   74.3198   56.1164   39.6818 C   0  0  0  0  0  0  0  0  0  0  0  0
   70.1396   52.0827   45.2905 O   0  0  0  0  0  0  0  0  0  0  0  0
   71.4248   53.7205   44.2715 C   0  0  0  0  0  0  0  0  0  0  0  0
   71.2838   54.3299   43.7160 N   0  0  0  0  0  0  0  0  0  0  0  0
   70.1534   51.0284   43.2317 N   0  0  0  0  0  0  0  0  0  0  0  0
   72.7990   53.9834   45.0702 S   0  0  0  0  0  0  0  0  0  0  0  0
   72.9028   55.3387   39.5997 C   0  0  0  0  0  0  0  0  0  0  0  0
   72.0307   55.2865   40.5410 C   0  0  0  0  0  0  0  0  0  0  0  0
  3  2  1  0
  4  1  1  0
  5  2  1  0
  5  4  1  0
  6  3  1  0
  7  1  1  0
  8  6  1  0
  9  6  1  0
 10  2  1  0
 10  9  1  0
 11  6  1  0
 12  9  2  0
 13  7  1  0
 14  5  1  0
 14 13  1  0
M  END
>  <ID>  (1) 
conformer_0

$$$$
