
     RDKit          3D

 12 12  0  0  0  0  0  0  0  0999 V2000
   71.6875   54.4050   44.0656 C   0  0  0  0  0  0  0  0  0  0  0  0
   73.8402   56.0630   39.7064 C   0  0  0  0  0  0  0  0  0  0  0  0
   72.6045   55.8453   41.2236 C   0  0  0  0  0  0  0  0  0  0  0  0
   70.5050   52.1437   42.5107 C   0  0  0  0  0  0  0  0  0  0  0  0
   72.0154   55.0145   41.8618 N   0  0  0  0  0  0  0  0  0  0  0  0
   71.2762   54.2958   44.2981 N   0  0  0  0  0  0  0  0  0  0  0  0
   71.3128   54.0440   42.0752 C   0  0  0  0  0  0  0  0  0  0  0  0
   70.6257   53.1434   41.8344 C   0  0  0  0  0  0  0  0  0  0  0  0
   73.7656   56.7749   41.1068 C   0  0  0  0  0  0  0  0  0  0  0  0
   70.3272   51.1128   42.8748 N   0  0  0  0  0  0  0  0  0  0  0  0
   71.7115   54.4514   45.5009 N   0  0  0  0  0  0  0  0  0  0  0  0
   70.8190   52.7901   44.0787 C   0  0  0  0  0  0  0  0  0  0  0  0
  3  2  1  0
  5  3  1  0
  6  1  1  0
  7  5  1  0
  8  4  1  0
  8  7  1  0
  9  2  1  0
  9  3  1  0
 10  4  1  0
 11  6  1  0
 12  4  2  3
 12  6  1  0
M  END
>  <ID>  (1) 
conformer_0

$$$$
