
     RDKit          3D

 13 14  0  0  0  0  0  0  0  0999 V2000
   71.4617   53.6947   44.0802 C   0  0  0  0  0  0  0  0  0  0  0  0
   74.2494   56.1000   39.7397 C   0  0  0  0  0  0  0  0  0  0  0  0
   70.4388   52.5193   42.9142 C   0  0  0  0  0  0  0  0  0  0  0  0
   73.0140   56.3638   41.8676 C   0  0  0  0  0  0  0  0  0  0  0  0
   70.4580   51.8667   45.0306 O   0  0  0  0  0  0  0  0  0  0  0  0
   71.2400   53.8451   45.9249 C   0  0  0  0  0  0  0  0  0  0  0  0
   72.2156   55.1986   41.6955 N   0  0  0  0  0  0  0  0  0  0  0  0
   73.6866   56.9237   41.0028 C   0  0  0  0  0  0  0  0  0  0  0  0
   71.3817   54.4253   42.7516 N   0  0  0  0  0  0  0  0  0  0  0  0
   71.4613   53.9890   42.4347 C   0  0  0  0  0  0  0  0  0  0  0  0
   69.7474   50.9649   44.1135 C   0  0  0  0  0  0  0  0  0  0  0  0
   71.9631   54.8183   40.4345 C   0  0  0  0  0  0  0  0  0  0  0  0
   72.8150   55.1775   39.6742 C   0  0  0  0  0  0  0  0  0  0  0  0
  3  1  1  0
  6  1  1  0
  7  4  1  0
  8  2  1  0
  8  4  1  0
  9  1  1  0
  9  7  1  0
 10  3  1  0
 10  9  1  0
 11  3  1  0
 11  5  1  0
 12  7  1  0
 13  2  1  0
 13 12  1  0
M  END
>  <ID>  (1) 
conformer_0

$$$$
