
     RDKit          3D

 13 12  0  0  0  0  0  0  0  0999 V2000
   73.3321   55.3622   39.6073 C   0  0  0  0  0  0  0  0  0  0  0  0
   71.5552   54.0190   44.1324 C   0  0  0  0  0  0  0  0  0  0  0  0
   72.8176   56.3996   42.3517 C   0  0  0  0  0  0  0  0  0  0  0  0
   72.0111   55.2963   41.8579 N   0  0  0  0  0  0  0  0  0  0  0  0
   72.3305   55.2622   44.4422 O   0  0  0  0  0  0  0  0  0  0  0  0
   70.6264   52.1690   44.7709 O   0  0  0  0  0  0  0  0  0  0  0  0
   70.5534   52.4319   43.2000 C   0  0  0  0  0  0  0  0  0  0  0  0
   74.1548   56.0538   39.4215 C   0  0  0  0  0  0  0  0  0  0  0  0
   71.0276   53.1100   42.1060 C   0  0  0  0  0  0  0  0  0  0  0  0
   72.0370   55.4478   40.4939 C   0  0  0  0  0  0  0  0  0  0  0  0
   71.4858   54.2017   42.3967 C   0  0  0  0  0  0  0  0  0  0  0  0
   70.0594   51.6308   44.7215 C   0  0  0  0  0  0  0  0  0  0  0  0
   73.3468   57.1882   41.2949 C   0  0  0  0  0  0  0  0  0  0  0  0
  4  3  1  0
  5  2  1  0
  7  6  1  0
  8  1  2  3
  9  7  1  0
 10  1  1  0
 10  4  1  0
 11  2  1  0
 11  4  1  0
 11  9  2  3
 12  6  1  0
 13  3  1  0
M  END
>  <ID>  (1) 
conformer_0

$$$$
