
     RDKit          3D

 15 15  0  0  0  0  0  0  0  0999 V2000
   73.1907   55.6786   39.3248 C   0  0  0  0  0  0  0  0  0  0  0  0
   71.5991   54.1708   44.2309 C   0  0  0  0  0  0  0  0  0  0  0  0
   70.8326   53.0042   42.0009 C   0  0  1  0  0  0  0  0  0  0  0  0
   70.2547   52.4170   45.8495 O   0  0  0  0  0  0  0  0  0  0  0  0
   72.2385   54.8961   41.6207 N   0  0  0  0  0  0  0  0  0  0  0  0
   71.7323   54.5075   43.6826 N   0  0  0  0  0  0  0  0  0  0  0  0
   72.7611   55.6207   41.0015 C   0  0  0  0  0  0  0  0  0  0  0  0
   73.5372   56.7652   40.9378 C   0  0  0  0  0  0  0  0  0  0  0  0
   70.5645   52.5962   43.2412 C   0  0  0  0  0  0  0  0  0  0  0  0
   71.7368   54.5772   45.4569 N   0  0  0  0  0  0  0  0  0  0  0  0
   69.6365   50.8388   43.6052 C   0  0  0  0  0  0  0  0  0  0  0  0
   70.4834   52.4520   44.8070 N   0  0  0  0  0  0  0  0  0  0  0  0
   71.6388   54.0763   42.1058 C   0  0  1  0  0  0  0  0  0  0  0  0
   70.0062   51.2634   41.8003 C   0  0  0  0  0  0  0  0  0  0  0  0
   69.9584   51.6452   44.2606 O   0  0  0  0  0  0  0  0  0  0  0  0
  6  2  2  3
  7  1  1  0
  7  5  1  0
  8  7  1  0
  3  9  1  1
 10  2  1  0
 12  4  1  0
 12  9  1  0
 13  3  1  0
 13  5  1  6
 13  6  1  0
 14  3  1  0
 14 11  1  0
 15 11  1  0
 15 12  1  0
M  END
>  <ID>  (1) 
conformer_0

$$$$
