
     RDKit          3D

 14 15  0  0  0  0  0  0  0  0999 V2000
   73.7535   55.4733   39.4978 C   0  0  0  0  0  0  0  0  0  0  0  0
   70.6946   52.5751   43.1463 C   0  0  0  0  0  0  0  0  0  0  0  0
   71.8485   54.8918   43.5487 N   0  0  0  0  0  0  0  0  0  0  0  0
   72.2825   54.9273   40.0227 C   0  0  0  0  0  0  0  0  0  0  0  0
   72.2088   55.0348   41.4204 N   0  0  0  0  0  0  0  0  0  0  0  0
   70.0884   51.7203   44.5331 O   0  0  0  0  0  0  0  0  0  0  0  0
   74.3509   56.4561   40.2831 C   0  0  0  0  0  0  0  0  0  0  0  0
   71.7152   54.2143   42.4528 C   0  0  0  0  0  0  0  0  0  0  0  0
   71.3730   54.1268   45.5648 N   0  0  0  0  0  0  0  0  0  0  0  0
   70.0858   50.5793   43.3970 C   0  0  0  0  0  0  0  0  0  0  0  0
   71.0279   52.8149   42.0617 C   0  0  0  0  0  0  0  0  0  0  0  0
   71.3985   53.8183   44.3791 C   0  0  0  0  0  0  0  0  0  0  0  0
   72.8596   56.2337   41.5051 C   0  0  0  0  0  0  0  0  0  0  0  0
   73.1992   57.2235   41.3904 C   0  0  0  0  0  0  0  0  0  0  0  0
  4  1  1  0
  5  4  1  0
  6  2  1  0
  7  1  1  0
  8  3  2  0
  8  5  1  0
 10  6  1  0
 11  2  2  0
 11  8  1  0
 12  2  1  0
 12  3  1  0
 12  9  1  0
 13  5  1  0
 14  7  1  0
 14 13  1  0
M  END
>  <ID>  (1) 
conformer_0

$$$$
