
     RDKit          3D

 13 13  0  0  0  0  0  0  0  0999 V2000
   70.5623   52.4233   43.2836 C   0  0  0  0  0  0  0  0  0  0  0  0
   73.9280   55.8950   39.5716 C   0  0  0  0  0  0  0  0  0  0  0  0
   72.1700   54.8976   39.7797 C   0  0  0  0  0  0  0  0  0  0  0  0
   72.1282   54.5422   43.5863 N   0  0  0  0  0  0  0  0  0  0  0  0
   70.4424   51.7098   45.3372 O   0  0  0  0  0  0  0  0  0  0  0  0
   71.6441   54.2204   42.2172 C   0  0  0  0  0  0  0  0  0  0  0  0
   72.2069   55.1600   41.2877 N   0  0  0  0  0  0  0  0  0  0  0  0
   70.4751   52.9977   41.9799 C   0  0  0  0  0  3  0  0  0  0  0  0
   71.1956   54.3415   45.4841 N   0  0  0  0  0  0  0  0  0  0  0  0
   73.5698   57.1235   40.9201 C   0  0  0  0  0  0  0  0  0  0  0  0
   69.9605   50.6662   43.1548 C   0  0  0  0  0  0  0  0  0  0  0  0
   72.6700   56.3794   41.2324 C   0  0  0  0  0  0  0  0  0  0  0  0
   71.4797   53.8794   43.9841 C   0  0  0  0  0  0  0  0  0  0  0  0
  5  1  1  0
  6  4  2  0
  7  3  1  0
  7  6  1  0
  8  1  1  0
  8  6  1  0
 10  2  1  0
 11  1  1  0
 12  7  1  0
 12 10  1  0
 13  1  1  0
 13  4  1  0
 13  9  1  0
M  RAD  1   8   2
M  END
>  <ID>  (1) 
conformer_0

$$$$
