
     RDKit          3D

 13 15  0  0  0  0  0  0  0  0999 V2000
   71.5319   53.9581   44.6419 C   0  0  0  0  0  0  0  0  0  0  0  0
   73.4507   56.8009   40.8992 C   0  0  0  0  0  0  0  0  0  0  0  0
   71.3853   53.9914   42.6795 C   0  0  0  0  0  0  0  0  0  0  0  0
   71.8332   54.9635   39.7449 C   0  0  0  0  0  0  0  0  0  0  0  0
   71.8273   54.8745   41.3526 N   0  0  0  0  0  0  0  0  0  0  0  0
   70.8014   52.6990   42.2968 C   0  0  0  0  0  0  0  0  0  0  0  0
   73.6063   55.7662   39.5982 C   0  0  0  0  0  0  0  0  0  0  0  0
   70.8354   52.8278   43.9012 C   0  0  0  0  0  0  0  0  0  0  0  0
   71.7673   54.4430   44.0679 N   0  0  0  0  0  0  0  0  0  0  0  0
   72.6377   55.9901   41.4165 C   0  0  0  0  0  0  0  0  0  0  0  0
   70.4597   51.4622   45.3577 O   0  0  0  0  0  0  0  0  0  0  0  0
   70.2328   51.4490   45.8233 Cl  0  0  0  0  0  0  0  0  0  0  0  0
   71.9028   54.7637   46.0675 N   0  0  0  0  0  0  0  0  0  0  0  0
  5  3  1  0
  5  4  1  0
  6  3  1  0
  7  2  1  0
  7  4  1  0
  8  1  1  0
  8  3  1  0
  8  6  1  0
  9  1  2  0
  9  3  1  0
 10  2  1  0
 10  5  1  0
 11  8  1  0
 12 11  1  0
 13  1  1  0
M  END
>  <ID>  (1) 
conformer_0

$$$$
