
     RDKit          3D

 12 13  0  0  0  0  0  0  0  0999 V2000
   73.6107   55.9022   39.5214 C   0  0  0  0  0  0  0  0  0  0  0  0
   71.3614   53.9283   41.8803 C   0  0  0  0  0  0  0  0  0  0  0  0
   71.6963   54.0961   43.5061 C   0  0  0  0  0  0  0  0  0  0  0  0
   70.7646   52.5239   41.7446 C   0  0  0  0  0  0  0  0  0  0  0  0
   72.8506   56.4889   41.8182 C   0  0  0  0  0  0  0  0  0  0  0  0
   72.1069   55.1258   41.4854 N   0  0  0  0  0  0  0  0  0  0  0  0
   72.0037   54.8061   43.4632 N   0  0  0  0  0  0  0  0  0  0  0  0
   71.1597   53.0483   44.2274 C   0  0  0  0  0  0  0  0  0  0  0  0
   73.7379   57.0067   40.7410 C   0  0  0  0  0  0  0  0  0  0  0  0
   69.6563   51.5702   45.0759 Cl  0  0  0  0  0  0  0  0  0  0  0  0
   72.2033   55.2281   40.1822 C   0  0  0  0  0  0  0  0  0  0  0  0
   70.5388   52.2515   43.1405 C   0  0  0  0  0  0  0  0  0  0  0  0
  3  2  2  0
  4  2  1  0
  6  2  1  0
  6  5  1  0
  7  3  1  0
  8  3  1  0
  9  1  1  0
  9  5  1  0
 11  1  1  0
 11  6  1  0
 12  4  1  0
 12  8  2  0
 12 10  1  0
M  END
>  <ID>  (1) 
conformer_0

$$$$
