
     RDKit          3D

 14 15  0  0  0  0  0  0  0  0999 V2000
   71.3555   54.2900   41.9319 C   0  0  0  0  0  0  0  0  0  0  0  0
   73.4742   55.8693   39.4370 C   0  0  0  0  0  0  0  0  0  0  0  0
   73.1922   56.5752   41.8522 C   0  0  0  0  0  0  0  0  0  0  0  0
   70.6277   53.0762   41.4974 C   0  0  0  0  0  0  0  0  0  0  0  0
   69.8230   51.9728   45.5155 O   0  0  0  0  0  0  0  0  0  0  0  0
   72.0598   54.4498   43.4068 N   0  0  0  0  0  0  0  0  0  0  0  0
   72.1687   55.3191   41.5326 N   0  0  0  0  0  0  0  0  0  0  0  0
   70.4105   52.5384   43.0063 C   0  0  0  0  0  0  0  0  0  0  0  0
   74.1432   56.9515   40.2284 C   0  0  0  0  0  0  0  0  0  0  0  0
   71.8228   52.0437   45.5259 O   0  0  0  0  0  0  0  0  0  0  0  0
   70.5130   52.1999   45.0868 N   0  0  0  0  0  0  0  0  0  0  0  0
   72.3103   55.4182   40.3442 C   0  0  0  0  0  0  0  0  0  0  0  0
   71.0723   54.0377   45.0520 N   0  0  0  0  0  0  0  0  0  0  0  0
   71.2845   53.7988   43.7778 C   0  0  0  0  0  0  0  0  0  0  0  0
  4  1  2  0
  6  1  1  0
  7  1  1  0
  7  3  1  0
  8  4  1  0
  9  2  1  0
  9  3  1  0
 11  5  1  0
 11 10  1  0
 12  2  1  0
 12  7  1  0
 13 11  1  0
 14  6  1  0
 14  8  2  0
 14 13  1  0
M  END
>  <ID>  (1) 
conformer_0

$$$$
