
     RDKit          3D

 12 13  0  0  0  0  0  0  0  0999 V2000
   71.4359   53.6437   44.1783 C   0  0  0  0  0  0  0  0  0  0  0  0
   73.9276   56.9546   40.8023 C   0  0  0  0  0  0  0  0  0  0  0  0
   70.4621   52.4351   43.0454 C   0  0  0  0  0  0  0  0  0  0  0  0
   73.0607   56.0396   41.6386 C   0  0  0  0  0  0  0  0  0  0  0  0
   72.2713   55.1254   41.5312 N   0  0  0  0  0  0  0  0  0  0  0  0
   70.7912   53.1891   41.8742 C   0  0  0  0  0  0  0  0  0  0  0  0
   73.7246   55.8520   39.7571 C   0  0  0  0  0  0  0  0  0  0  0  0
   70.4597   52.1761   45.3866 O   0  0  0  0  0  0  0  0  0  0  0  0
   71.6899   54.1002   42.8052 C   0  0  0  0  0  0  0  0  0  0  0  0
   70.2491   52.1384   45.0472 N   0  0  0  0  0  0  0  0  0  0  0  0
   72.1022   55.0504   39.9962 C   0  0  0  0  0  0  0  0  0  0  0  0
   69.5478   51.6065   41.7724 N   0  0  0  0  0  0  0  0  0  0  0  0
  3  1  2  0
  4  2  1  0
  5  4  1  0
  6  3  1  0
  7  2  1  0
  9  1  1  0
  9  5  1  0
  9  6  2  0
 10  1  1  0
 10  8  2  0
 11  5  1  0
 11  7  1  0
 12  3  1  0
M  END
>  <ID>  (1) 
conformer_0

$$$$
