
     RDKit          3D

 12 11  0  0  0  0  0  0  0  0999 V2000
   73.7853   55.8118   39.2101 C   0  0  0  0  0  0  0  0  0  0  0  0
   71.2746   53.7854   44.3264 C   0  0  0  0  0  0  0  0  0  0  0  0
   71.8513   54.3660   43.7069 N   0  0  0  0  0  0  0  0  0  0  0  0
   73.1032   56.2635   41.4646 C   0  0  0  0  0  0  0  0  0  0  0  0
   72.2298   54.9408   41.4919 N   0  0  0  0  0  0  0  0  0  0  0  0
   69.7587   51.9974   45.6651 O   0  0  0  0  0  0  0  0  0  0  0  0
   73.6339   56.8038   40.7146 C   0  0  0  0  0  0  0  0  0  0  0  0
   71.5299   53.9084   42.1788 C   0  0  2  0  0  0  0  0  0  0  0  0
   70.6010   52.9508   42.2413 C   0  0  0  0  0  0  0  0  0  0  0  0
   71.1471   54.2490   45.9198 N   0  0  0  0  0  0  0  0  0  0  0  0
   70.5886   52.3413   43.1325 C   0  0  0  0  0  0  0  0  0  0  0  0
   72.2248   54.9145   40.2461 C   0  0  0  0  0  0  0  0  0  0  0  0
  3  2  2  3
  5  4  1  0
  7  1  1  0
  7  4  1  0
  8  3  1  0
  8  5  1  0
  8  9  1  1
 10  2  1  0
 11  6  1  0
 11  9  1  0
 12  5  1  0
M  END
>  <ID>  (1) 
conformer_0

$$$$
