
     RDKit          3D

 13 13  0  0  0  0  0  0  0  0999 V2000
   73.8057   56.6966   40.0353 C   0  0  0  0  0  0  0  0  0  0  0  0
   71.6295   54.3164   42.1915 C   0  0  0  0  0  0  0  0  0  0  0  0
   71.8786   54.5679   43.8574 N   0  0  0  0  0  0  0  0  0  0  0  0
   73.0269   56.7281   41.9427 C   0  0  0  0  0  0  0  0  0  0  0  0
   69.8523   51.5357   45.0424 O   0  0  0  0  0  0  0  0  0  0  0  0
   70.7847   53.1961   42.0748 C   0  0  0  0  0  0  0  0  0  0  0  0
   72.2150   55.2415   41.7923 N   0  0  0  0  0  0  0  0  0  0  0  0
   71.5001   53.9039   44.3437 C   0  0  0  0  0  0  0  0  0  0  0  0
   73.4728   55.5828   39.4763 C   0  0  0  0  0  0  0  0  0  0  0  0
   70.1947   51.7713   43.7987 C   0  0  0  0  0  0  0  0  0  0  0  0
   71.5649   53.7912   45.9547 N   0  0  0  0  0  0  0  0  0  0  0  0
   70.5725   52.7018   43.1915 C   0  0  0  0  0  0  0  0  0  0  0  0
   72.4817   55.2717   40.5331 C   0  0  0  0  0  0  0  0  0  0  0  0
  3  2  2  0
  6  2  1  0
  7  2  1  0
  7  4  1  0
  8  3  1  0
  9  1  1  0
 10  5  1  0
 11  8  1  0
 12  6  1  0
 12  8  2  0
 12 10  1  0
 13  7  1  0
 13  9  1  0
M  END
>  <ID>  (1) 
conformer_0

$$$$
