
     RDKit          3D

 12 12  0  0  0  0  0  0  0  0999 V2000
   71.8368   54.3265   42.0886 C   0  0  0  0  0  0  0  0  0  0  0  0
   73.6742   57.2362   41.2941 C   0  0  0  0  0  0  0  0  0  0  0  0
   70.9021   52.9818   41.6653 C   0  0  0  0  0  0  0  0  0  0  0  0
   72.3513   55.2632   41.5850 N   0  0  0  0  0  0  0  0  0  0  0  0
   69.8150   51.9449   44.8917 O   0  0  0  0  0  0  0  0  0  0  0  0
   72.7192   56.0756   41.0632 C   0  0  0  0  0  0  0  0  0  0  0  0
   70.6230   52.6121   43.0125 C   0  0  0  0  0  0  0  0  0  0  0  0
   74.2417   56.2380   39.7250 C   0  0  0  0  0  0  0  0  0  0  0  0
   71.8050   54.3158   43.7899 N   0  0  0  0  0  0  0  0  0  0  0  0
   70.2780   52.3689   44.6355 N   0  0  0  0  0  0  0  0  0  0  0  0
   72.6388   54.9924   39.5161 C   0  0  0  0  0  0  0  0  0  0  0  0
   71.6281   53.8790   43.8145 C   0  0  0  0  0  0  0  0  0  0  0  0
  3  1  1  0
  4  1  1  0
  6  2  1  0
  6  4  1  0
  7  3  1  0
  8  2  1  0
  9  1  2  0
 10  5  2  0
 10  7  1  0
 11  6  1  0
 12  7  1  0
 12  9  1  0
M  END
>  <ID>  (1) 
conformer_0

$$$$
