
     RDKit          3D

 14 14  0  0  0  0  0  0  0  0999 V2000
   74.0287   57.1961   41.1017 C   0  0  0  0  0  0  0  0  0  0  0  0
   71.6513   54.2809   42.5197 C   0  0  0  0  0  0  0  0  0  0  0  0
   71.0842   52.9562   41.7872 C   0  0  0  0  0  0  0  0  0  0  0  0
   72.8314   56.6967   41.7756 C   0  0  0  0  0  0  0  0  0  0  0  0
   70.5358   51.5363   44.0200 O   0  0  0  0  0  0  0  0  0  0  0  0
   74.1775   56.6680   39.8766 C   0  0  0  0  0  0  0  0  0  0  0  0
   71.4741   54.2698   45.3645 N   0  0  0  0  0  0  0  0  0  0  0  0
   70.6491   52.4347   43.2139 C   0  0  0  0  0  0  0  0  0  0  0  0
   72.0310   55.3031   42.0553 N   0  0  0  0  0  0  0  0  0  0  0  0
   70.4425   51.9988   44.6998 N   0  0  0  0  0  0  0  0  0  0  0  0
   71.3129   53.8943   44.3343 C   0  0  0  0  0  0  0  0  0  0  0  0
   71.8553   55.1018   40.6298 C   0  0  0  0  0  0  0  0  0  0  0  0
   72.7225   55.2791   40.0502 C   0  0  0  0  0  0  0  0  0  0  0  0
   70.0797   52.0944   45.4953 O   0  0  0  0  0  0  0  0  0  0  0  0
  3  2  1  0
  4  1  1  0
  6  1  1  0
  8  3  1  0
  8  5  1  0
  9  2  1  0
  9  4  1  0
 10  5  1  0
 11  2  2  0
 11  7  1  0
 11  8  1  0
 12  9  1  0
 13 12  1  0
 14 10  2  0
M  END
>  <ID>  (1) 
conformer_0

$$$$
