
     RDKit          3D

 13 13  0  0  0  0  0  0  0  0999 V2000
   73.4915   56.4631   40.6890 C   0  0  0  0  0  0  0  0  0  0  0  0
   71.7344   54.0712   43.8174 C   0  0  0  0  0  0  0  0  0  0  0  0
   73.7379   56.0222   39.4023 C   0  0  0  0  0  0  0  0  0  0  0  0
   70.5309   51.6390   45.4293 O   0  0  0  0  0  0  0  0  0  0  0  0
   70.7942   52.8404   41.9283 C   0  0  0  0  0  0  0  0  0  0  0  0
   71.8816   54.8758   44.7872 N   0  0  0  0  0  0  0  0  0  0  0  0
   70.7465   52.4668   43.2114 C   0  0  0  0  0  0  0  0  0  0  0  0
   72.4488   55.9202   41.3362 C   0  0  0  0  0  0  0  0  0  0  0  0
   72.1025   54.8177   39.7537 C   0  0  0  0  0  0  0  0  0  0  0  0
   71.9486   55.0267   41.6759 N   0  0  0  0  0  0  0  0  0  0  0  0
   70.6288   51.9873   45.0084 N   0  0  0  0  0  0  0  0  0  0  0  0
   71.1643   53.7516   43.7245 N   0  0  0  0  0  0  0  0  0  0  0  0
   71.5567   54.1930   41.9375 C   0  0  0  0  0  0  0  0  0  0  0  0
  3  1  1  0
  6  2  1  0
  7  5  1  0
  8  1  1  0
  9  8  1  0
 10  8  1  0
 11  4  2  0
 11  7  1  0
 12  2  1  0
 12  7  2  0
 13  2  1  0
 13  5  2  0
 13 10  1  0
M  END
>  <ID>  (1) 
conformer_0

$$$$
