
     RDKit          3D

 11 13  0  0  0  0  0  0  0  0999 V2000
   71.3320   53.7237   44.3693 C   0  0  0  0  0  0  0  0  0  0  0  0
   73.4242   55.6711   39.5746 C   0  0  0  0  0  0  0  0  0  0  0  0
   70.4706   52.4909   43.1510 C   0  0  0  0  0  0  0  0  0  0  0  0
   72.8866   56.3378   42.0025 C   0  0  0  0  0  0  0  0  0  0  0  0
   72.0497   55.0676   41.7626 N   0  0  0  0  0  0  0  0  0  0  0  0
   71.3389   53.9512   42.6363 C   0  0  0  0  0  0  0  0  0  0  0  0
   70.2027   51.7175   44.9286 O   0  0  0  0  0  0  0  0  0  0  0  0
   70.9126   53.0074   41.8181 C   0  0  0  0  0  0  0  0  0  0  0  0
   72.2732   55.0342   40.2233 C   0  0  0  0  0  0  0  0  0  0  0  0
   73.7141   56.7382   40.5542 C   0  0  0  0  0  0  0  0  0  0  0  0
   71.5614   54.1261   45.6885 N   0  0  0  0  0  0  0  0  0  0  0  0
  3  1  1  0
  5  4  1  0
  6  1  1  0
  6  3  1  0
  6  5  1  0
  7  3  1  0
  8  3  1  0
  8  6  1  0
  9  2  1  0
  9  5  1  0
 10  2  1  0
 10  4  1  0
 11  1  1  0
M  END
>  <ID>  (1) 
conformer_0

$$$$
