
     RDKit          3D

 12 11  0  0  0  0  0  0  0  0999 V2000
   73.6755   55.8896   39.6085 C   0  0  0  0  0  0  0  0  0  0  0  0
   71.6370   54.0369   42.2274 C   0  0  0  0  0  0  0  0  0  0  0  0
   71.9071   54.9033   40.0287 C   0  0  0  0  0  0  0  0  0  0  0  0
   71.1942   52.8795   41.8643 C   0  0  0  0  0  0  0  0  0  0  0  0
   71.7137   54.5566   43.8037 N   0  0  0  0  0  0  0  0  0  0  0  0
   72.0383   55.0070   41.5313 N   0  0  0  0  0  0  0  0  0  0  0  0
   70.3273   52.3442   45.2441 O   0  0  0  0  0  0  0  0  0  0  0  0
   73.5875   56.7499   40.9025 C   0  0  0  0  0  0  0  0  0  0  0  0
   70.5363   52.1609   42.9303 C   0  0  0  0  0  0  0  0  0  0  0  0
   71.3484   53.9205   45.6431 C   0  0  0  0  0  0  0  0  0  0  0  0
   72.8627   56.0604   41.7309 C   0  0  0  0  0  0  0  0  0  0  0  0
   71.2653   53.5183   44.2004 C   0  0  0  0  0  0  0  0  0  0  0  0
  4  2  2  3
  5  2  1  0
  6  2  1  0
  6  3  1  0
  8  1  1  0
  9  4  1  0
 11  6  1  0
 11  8  1  0
 12  5  1  0
 12  7  2  0
 12 10  1  0
M  END
>  <ID>  (1) 
conformer_0

$$$$
