
     RDKit          3D

 13 14  0  0  0  0  0  0  0  0999 V2000
   73.5752   55.8275   39.4760 C   0  0  0  0  0  0  0  0  0  0  0  0
   71.5659   54.2454   42.0185 C   0  0  0  0  0  0  0  0  0  0  0  0
   72.1063   55.2210   41.4726 N   0  0  0  0  0  0  0  0  0  0  0  0
   70.1263   51.4228   44.9801 O   0  0  0  0  0  0  0  0  0  0  0  0
   73.0109   56.5767   41.8581 C   0  0  0  0  0  0  0  0  0  0  0  0
   72.1959   54.7230   43.4732 N   0  0  0  0  0  0  0  0  0  0  0  0
   70.8875   53.0383   41.8851 C   0  0  0  0  0  0  0  0  0  0  0  0
   70.4172   52.1647   42.6478 C   0  0  0  0  0  0  0  0  0  0  0  0
   71.3521   53.7613   45.6075 N   0  0  0  0  0  0  0  0  0  0  0  0
   73.6873   56.7408   40.5562 C   0  0  0  0  0  0  0  0  0  0  0  0
   71.8428   55.1678   40.1853 C   0  0  0  0  0  0  0  0  0  0  0  0
   71.7946   54.2061   43.8588 C   0  0  0  0  0  3  0  0  0  0  0  0
   70.8341   52.9174   44.1956 C   0  0  0  0  0  0  0  0  0  0  0  0
  3  2  1  0
  5  3  1  0
  6  2  2  0
  7  2  1  0
  8  7  2  0
 10  1  1  0
 10  5  1  0
 11  3  1  0
 12  6  1  0
 12  9  1  0
 13  4  1  0
 13  8  1  0
 13  9  1  0
 13 12  1  0
M  RAD  1  12   2
M  END
>  <ID>  (1) 
conformer_0

$$$$
