
     RDKit          3D

 11 12  0  0  0  0  0  0  0  0999 V2000
   71.7058   54.2912   42.6343 C   0  0  0  0  0  0  0  0  0  0  0  0
   74.0960   56.1928   39.6178 C   0  0  0  0  0  0  0  0  0  0  0  0
   70.2572   51.7213   44.7550 O   0  0  0  0  0  0  0  0  0  0  0  0
   70.8439   53.0950   41.9939 C   0  0  0  0  0  0  0  0  0  0  0  0
   72.1248   55.1311   41.8672 N   0  0  0  0  0  0  0  0  0  0  0  0
   71.6435   53.9447   44.4564 C   0  0  0  0  0  0  0  0  0  0  0  0
   73.6151   56.8039   41.2019 C   0  0  0  0  0  0  0  0  0  0  0  0
   72.4173   55.8416   41.1007 C   0  0  0  0  0  0  0  0  0  0  0  0
   70.7004   52.8094   43.5125 C   0  0  0  0  0  0  0  0  0  0  0  0
   69.6476   51.1075   44.4054 C   0  0  0  0  0  0  0  0  0  0  0  0
   72.7756   55.0686   39.6011 C   0  0  0  0  0  0  0  0  0  0  0  0
  4  1  2  0
  5  1  1  0
  6  1  1  0
  7  2  1  0
  8  5  1  0
  8  7  1  0
  9  3  1  0
  9  4  1  0
  9  6  2  0
 10  3  1  0
 11  2  1  0
 11  8  1  0
M  END
>  <ID>  (1) 
conformer_0

$$$$
