
     RDKit          3D

 14 15  0  0  0  0  0  0  0  0999 V2000
   73.8696   56.9118   40.4709 C   0  0  0  0  0  0  0  0  0  0  0  0
   71.4899   53.7548   44.6328 C   0  0  0  0  0  0  0  0  0  0  0  0
   70.8549   52.8472   42.1662 C   0  0  0  0  0  0  0  0  0  0  0  0
   72.9098   56.6105   41.7762 C   0  0  0  0  0  0  0  0  0  0  0  0
   72.2382   55.2837   41.9088 N   0  0  0  0  0  0  0  0  0  0  0  0
   71.7484   54.4623   43.5857 N   0  0  0  0  0  0  0  0  0  0  0  0
   73.8339   55.9265   39.4055 C   0  0  0  0  0  0  0  0  0  0  0  0
   70.5678   52.3308   43.6843 C   0  0  0  0  0  0  0  0  0  0  0  0
   71.5733   54.2660   45.4929 N   0  0  0  0  0  0  0  0  0  0  0  0
   70.5438   51.6912   44.9830 O   0  0  0  0  0  0  0  0  0  0  0  0
   71.5953   54.0741   42.6594 C   0  0  0  0  0  0  0  0  0  0  0  0
   72.1368   54.9436   40.5711 C   0  0  0  0  0  0  0  0  0  0  0  0
   72.2548   54.8629   39.8080 C   0  0  0  0  0  0  0  0  0  0  0  0
   69.7145   51.5512   45.5326 Cl  0  0  0  0  0  0  0  0  0  0  0  0
  4  1  2  0
  5  4  1  0
  6  2  2  0
  7  1  1  0
  8  2  1  0
  8  3  1  0
  9  2  1  0
 10  8  1  0
 11  3  2  0
 11  5  1  0
 11  6  1  0
 12  5  1  0
 13  7  1  0
 13 12  1  0
 14 10  1  0
M  END
>  <ID>  (1) 
conformer_0

$$$$
