
     RDKit          3D

 14 15  0  0  0  0  0  0  0  0999 V2000
   73.2295   55.5089   39.5050 C   0  0  0  0  0  0  0  0  0  0  0  0
   70.7656   51.9624   43.3877 C   0  0  0  0  0  0  0  0  0  0  0  0
   70.9778   52.6681   41.9746 C   0  0  0  0  0  0  0  0  0  0  0  0
   73.8999   56.6320   39.7508 C   0  0  0  0  0  0  0  0  0  0  0  0
   72.5629   56.4642   41.8861 C   0  0  0  0  0  0  0  0  0  0  0  0
   70.1338   51.7469   45.7996 O   0  0  0  0  0  1  0  0  0  0  0  0
   71.9084   55.1171   41.6565 N   0  0  0  0  0  0  0  0  0  0  0  0
   71.5073   54.0587   42.3283 C   0  0  0  0  0  0  0  0  0  0  0  0
   72.0590   54.3086   43.7804 N   0  0  0  0  0  0  0  0  0  0  0  0
   73.3961   57.2050   40.9791 C   0  0  0  0  0  0  0  0  0  0  0  0
   71.6883   55.2064   40.3919 C   0  0  0  0  0  0  0  0  0  0  0  0
   70.6031   51.9155   44.9024 S   0  0  0  0  0  3  0  0  0  0  0  0
   71.2201   53.5955   44.2413 C   0  0  0  0  0  0  0  0  0  0  0  0
   71.0334   54.0743   45.5898 N   0  0  0  0  0  0  0  0  0  0  0  0
  3  2  2  0
  4  1  1  0
  7  5  1  0
  8  3  1  0
  8  7  1  0
  9  8  2  0
 10  4  1  0
 10  5  2  0
 11  1  1  0
 11  7  1  0
 12  2  1  0
 12  6  1  0
 13  2  1  0
 13  9  1  0
 14 13  1  0
M  RAD  2   6   2  12   2
M  END
>  <ID>  (1) 
conformer_0

$$$$
