
     RDKit          3D

 11 12  0  0  0  0  0  0  0  0999 V2000
   71.3600   53.8516   42.0463 C   0  0  0  0  0  0  0  0  0  0  0  0
   73.8636   55.7382   39.9269 C   0  0  0  0  0  0  0  0  0  0  0  0
   72.8906   56.2478   41.6834 C   0  0  0  0  0  0  0  0  0  0  0  0
   70.6526   52.5832   43.2878 C   0  0  0  0  0  0  0  0  0  0  0  0
   70.0987   51.8738   45.1491 O   0  0  0  0  0  0  0  0  0  0  0  0
   72.0947   54.9934   41.4762 N   0  0  0  0  0  0  0  0  0  0  0  0
   70.6706   52.5423   41.7781 C   0  0  0  0  0  0  0  0  0  0  0  0
   71.5879   54.5706   45.0959 N   0  0  0  0  0  0  0  0  0  0  0  0
   73.5467   56.9942   41.1732 C   0  0  0  0  0  0  0  0  0  0  0  0
   71.5826   54.0146   43.7090 C   0  0  0  0  0  0  0  0  0  0  0  0
   71.9897   55.0851   40.0680 C   0  0  0  0  0  0  0  0  0  0  0  0
  4  1  1  0
  5  4  1  0
  6  1  1  0
  6  3  1  0
  7  1  1  0
  7  4  1  0
  9  2  1  0
  9  3  1  0
 10  1  1  0
 10  4  1  0
 10  8  1  0
 11  6  1  0
M  END
>  <ID>  (1) 
conformer_0

$$$$
