
     RDKit          3D

  9 10  0  0  0  0  0  0  0  0999 V2000
   71.6562   53.9875   42.7248 C   0  0  0  0  0  0  0  0  0  0  0  0
   73.4580   55.7570   39.7554 C   0  0  0  0  0  0  0  0  0  0  0  0
   70.7979   52.6414   41.9660 C   0  0  0  0  0  0  0  0  0  0  0  0
   72.7291   56.0800   41.4365 C   0  0  0  0  0  0  0  0  0  0  0  0
   71.2159   53.5561   44.2318 C   0  0  0  0  0  0  0  0  0  0  0  0
   72.3355   55.2967   41.8750 N   0  0  0  0  0  0  0  0  0  0  0  0
   73.9209   57.0700   40.5633 C   0  0  0  0  0  0  0  0  0  0  0  0
   70.4726   52.2120   43.5498 C   0  0  0  0  0  0  0  0  0  0  0  0
   69.7897   51.8809   45.5807 Cl  0  0  0  0  0  0  0  0  0  0  0  0
  3  1  1  0
  4  2  1  0
  5  1  2  0
  6  1  1  0
  6  4  1  0
  7  2  1  0
  7  4  1  0
  8  3  1  0
  8  5  1  0
  9  8  1  0
M  END
>  <ID>  (1) 
conformer_0

$$$$
