
     RDKit          3D

 14 14  0  0  0  0  0  0  0  0999 V2000
   73.7259   56.7492   41.8038 C   0  0  0  0  0  0  0  0  0  0  0  0
   70.4190   52.3085   43.0414 C   0  0  0  0  0  0  0  0  0  0  0  0
   72.1390   54.3834   43.8759 N   0  0  0  0  0  0  0  0  0  0  0  0
   70.7805   53.3039   41.9172 C   0  0  0  0  0  0  0  0  0  0  0  0
   72.7380   56.5831   41.8927 C   0  0  0  0  0  0  0  0  0  0  0  0
   70.3753   51.5296   44.8788 O   0  0  0  0  0  0  0  0  0  0  0  0
   72.0240   55.4009   41.8550 N   0  0  0  0  0  0  0  0  0  0  0  0
   73.9291   56.7198   40.2389 C   0  0  0  0  0  0  0  0  0  0  0  0
   71.3536   53.3742   44.5944 C   0  0  0  0  0  0  0  0  0  0  0  0
   71.5255   54.1323   42.8014 C   0  0  0  0  0  0  0  0  0  0  0  0
   73.4534   55.3507   39.5663 C   0  0  0  0  0  0  0  0  0  0  0  0
   71.4644   53.6997   45.7968 N   0  0  0  0  0  0  0  0  0  0  0  0
   71.8832   55.1871   40.5917 C   0  0  0  0  0  0  0  0  0  0  0  0
   71.4745   54.4033   40.0550 C   0  0  0  0  0  0  0  0  0  0  0  0
  4  2  2  0
  5  1  1  0
  6  2  2  0
  7  5  1  0
  8  1  1  0
  9  3  1  0
 10  3  1  0
 10  4  1  0
 10  7  1  0
 11  8  1  0
 12  9  1  0
 13  7  1  0
 13 11  1  0
 14 13  1  0
M  END
>  <ID>  (1) 
conformer_0

$$$$
