
     RDKit          3D

 13 15  0  0  0  0  0  0  0  0999 V2000
   73.5524   56.5964   41.0752 C   0  0  0  0  0  0  0  0  0  0  0  0
   71.2887   53.8077   44.0462 C   0  0  0  0  0  0  0  0  0  0  0  0
   71.5962   54.0362   42.3182 C   0  0  0  0  0  0  0  0  0  0  0  0
   71.0577   52.6549   41.7980 C   0  0  0  0  0  0  0  0  0  0  0  0
   72.9696   55.4403   39.7363 C   0  0  0  0  0  0  0  0  0  0  0  0
   70.1389   51.6481   44.9961 O   0  0  0  0  0  0  0  0  0  0  0  0
   72.1798   54.8984   41.7791 N   0  0  0  0  0  0  0  0  0  0  0  0
   72.6230   55.8265   41.3837 C   0  0  0  0  0  0  0  0  0  0  0  0
   71.2632   54.0358   45.4385 N   0  0  0  0  0  0  0  0  0  0  0  0
   72.1018   55.0089   43.5982 N   0  0  0  0  0  0  0  0  0  0  0  0
   70.6967   52.6132   43.5954 C   0  0  0  0  0  0  0  0  0  0  0  0
   69.8514   50.4908   43.9543 C   0  0  0  0  0  0  0  0  0  0  0  0
   74.1351   56.2519   39.5005 C   0  0  0  0  0  0  0  0  0  0  0  0
  3  2  1  0
  4  3  1  0
  7  3  1  0
  8  1  1  0
  8  5  1  0
  8  7  1  0
  9  2  1  0
 10  2  1  0
 10  3  1  0
 11  2  1  0
 11  4  2  0
 11  6  1  0
 12  6  1  0
 13  1  1  0
 13  5  1  0
M  END
>  <ID>  (1) 
conformer_0

$$$$
