
     RDKit          3D

 14 15  0  0  0  0  0  0  0  0999 V2000
   73.8450   56.6179   40.6650 C   0  0  0  0  0  0  0  0  0  0  0  0
   71.7370   54.3294   44.0981 C   0  0  0  0  0  0  0  0  0  0  0  0
   72.8319   56.6471   41.6833 C   0  0  0  0  0  0  0  0  0  0  0  0
   70.4058   51.9298   44.9935 O   0  0  0  0  0  0  0  0  0  0  0  0
   72.1926   55.4068   41.7201 N   0  0  0  0  0  0  0  0  0  0  0  0
   72.3115   54.1381   43.6370 N   0  0  0  0  0  0  0  0  0  0  0  0
   71.3323   54.3354   45.5333 N   0  0  0  0  0  0  0  0  0  0  0  0
   70.0173   50.9190   42.6928 C   0  0  0  0  0  0  0  0  0  0  0  0
   70.8800   52.6179   44.1130 C   0  0  0  0  0  0  0  0  0  0  0  0
   70.9221   53.1543   42.0709 C   0  0  0  0  0  0  0  0  0  0  0  0
   71.7614   54.9881   40.2834 C   0  0  0  0  0  0  0  0  0  0  0  0
   73.3651   55.4815   39.5584 C   0  0  0  0  0  0  0  0  0  0  0  0
   70.7351   52.2282   42.3082 C   0  0  0  0  0  0  0  0  0  0  0  0
   71.7846   54.2553   42.1464 C   0  0  0  0  0  0  0  0  0  0  0  0
  3  1  1  0
  5  3  1  0
  6  2  1  0
  7  2  1  0
  9  2  1  0
  9  4  2  0
 11  5  1  0
 12  1  1  0
 12 11  1  0
 13  8  1  0
 13  9  1  0
 13 10  1  0
 14  5  1  0
 14  6  1  0
 14 10  1  0
M  END
>  <ID>  (1) 
conformer_0

$$$$
