
     RDKit          3D

 11 11  0  0  0  0  0  0  0  0999 V2000
   74.2239   56.6991   40.3865 C   0  0  0  0  0  0  0  0  0  0  0  0
   70.3921   52.5500   43.4246 C   0  0  1  0  0  0  0  0  0  0  0  0
   70.7909   53.0099   41.9645 C   0  0  0  0  0  0  0  0  0  0  0  0
   73.2485   56.3494   41.8087 C   0  0  0  0  0  0  0  0  0  0  0  0
   72.3639   55.0960   41.3842 N   0  0  0  0  0  0  0  0  0  0  0  0
   70.0098   52.0423   45.4533 O   0  0  0  0  0  0  0  0  0  0  0  0
   71.5044   54.1567   42.3394 C   0  0  0  0  0  0  0  0  0  0  0  0
   73.8643   55.6536   39.4509 C   0  0  0  0  0  0  0  0  0  0  0  0
   72.4577   55.0495   40.1329 C   0  0  0  0  0  0  0  0  0  0  0  0
   71.1083   54.1438   45.4198 N   0  0  0  0  0  0  0  0  0  0  0  0
   71.2443   53.8173   44.2895 C   0  0  0  0  0  0  0  0  0  0  0  0
  3  2  1  0
  4  1  1  0
  5  4  1  0
  2  6  1  1
  7  3  2  3
  7  5  1  0
  8  1  1  0
  9  5  1  0
  9  8  1  0
 11  2  1  0
 11 10  1  0
M  END
>  <ID>  (1) 
conformer_0

$$$$
