
     RDKit          3D

 12 13  0  0  0  0  0  0  0  0999 V2000
   71.6862   54.2667   42.5284 C   0  0  0  0  0  0  0  0  0  0  0  0
   73.4633   55.7532   39.4008 C   0  0  0  0  0  0  0  0  0  0  0  0
   70.7908   53.7055   41.9067 C   0  0  0  0  0  0  0  0  0  0  0  0
   72.9213   56.6966   41.9038 C   0  0  0  0  0  0  0  0  0  0  0  0
   71.4706   53.7550   44.2631 C   0  0  0  0  0  0  0  0  0  0  0  0
   72.2686   55.2500   41.7436 N   0  0  0  0  0  0  0  0  0  0  0  0
   71.8644   54.3752   44.2909 N   0  0  0  0  0  0  0  0  0  0  0  0
   69.9721   51.4140   44.7435 O   0  0  0  0  0  0  0  0  0  0  0  0
   72.4034   55.1105   40.2068 C   0  0  0  0  0  0  0  0  0  0  0  0
   73.9682   56.7560   40.6357 C   0  0  0  0  0  0  0  0  0  0  0  0
   70.5544   52.3769   43.6465 C   0  0  0  0  0  0  0  0  0  0  0  0
   70.4449   52.2908   42.1672 C   0  0  0  0  0  0  0  0  0  0  0  0
  3  1  2  0
  5  1  1  0
  6  1  1  0
  6  4  1  0
  7  5  2  3
  9  2  1  0
  9  6  1  0
 10  2  1  0
 10  4  1  0
 11  5  1  0
 11  8  1  0
 12  3  1  0
 12 11  2  0
M  END
>  <ID>  (1) 
conformer_0

$$$$
