
     RDKit          3D

 11 11  0  0  0  0  0  0  0  0999 V2000
   73.9144   55.9678   39.7686 C   0  0  0  0  0  0  0  0  0  0  0  0
   70.7216   52.9310   43.6752 C   0  0  0  0  0  0  0  0  0  0  0  0
   70.8137   52.9070   42.0100 C   0  0  0  0  0  0  0  0  0  0  0  0
   73.3593   57.4922   41.2379 C   0  0  0  0  0  0  0  0  0  0  0  0
   72.8180   55.7979   41.0709 C   0  0  0  0  0  0  0  0  0  0  0  0
   69.9273   51.4052   45.4272 O   0  0  0  0  0  0  0  0  0  0  0  0
   72.4036   55.2135   41.6281 N   0  0  0  0  0  0  0  0  0  0  0  0
   71.9945   54.5547   43.1720 N   0  0  0  0  0  0  0  0  0  0  0  0
   71.6453   54.1945   42.7542 C   0  0  0  0  0  0  0  0  0  0  0  0
   69.7590   50.7462   42.5799 C   0  0  0  0  0  0  0  0  0  0  0  0
   71.7437   53.9552   45.4496 S   0  0  0  0  0  0  0  0  0  0  0  0
  3  2  1  0
  5  1  1  0
  5  4  1  0
  6  2  1  0
  7  5  1  0
  9  2  1  0
  9  3  1  0
  9  7  1  0
  9  8  1  0
 10  3  1  0
 11  2  1  0
M  END
>  <ID>  (1) 
conformer_0

$$$$
