
     RDKit          3D

 12 13  0  0  0  0  0  0  0  0999 V2000
   74.2430   56.3571   40.4194 C   0  0  0  0  0  0  0  0  0  0  0  0
   70.5240   52.4705   43.0719 C   0  0  0  0  0  0  0  0  0  0  0  0
   73.1105   56.8104   41.9093 C   0  0  0  0  0  0  0  0  0  0  0  0
   71.3470   54.2259   42.7103 C   0  0  0  0  0  0  0  0  0  0  0  0
   72.0626   55.2824   41.6575 N   0  0  0  0  0  0  0  0  0  0  0  0
   70.5555   51.7718   45.1837 O   0  0  0  0  0  0  0  0  0  0  0  0
   70.3590   52.8186   42.7609 N   0  0  0  0  0  0  0  0  0  0  0  0
   71.2706   53.5847   44.2849 C   0  0  0  0  0  0  0  0  0  0  0  0
   72.0480   54.8062   43.4783 N   0  0  0  0  0  0  0  0  0  0  0  0
   72.2892   55.4058   40.5821 C   0  0  0  0  0  0  0  0  0  0  0  0
   71.3765   54.0880   45.4939 N   0  0  0  0  0  0  0  0  0  0  0  0
   73.5447   55.5658   39.8053 C   0  0  0  0  0  0  0  0  0  0  0  0
  3  1  1  0
  5  3  1  0
  5  4  1  0
  6  2  2  0
  7  2  1  0
  7  4  1  0
  8  2  1  0
  8  4  1  0
  9  4  1  0
 10  5  1  0
 11  8  1  0
 12  1  1  0
 12 10  1  0
M  END
>  <ID>  (1) 
conformer_0

$$$$
