
     RDKit          3D

 13 14  0  0  0  0  0  0  0  0999 V2000
   73.0700   57.3438   41.6577 C   0  0  0  0  0  0  0  0  0  0  0  0
   71.3745   53.3903   44.1609 C   0  0  0  0  0  0  0  0  0  0  0  0
   71.8444   54.3144   43.7226 N   0  0  0  0  0  0  0  0  0  0  0  0
   73.5682   57.0345   40.2661 C   0  0  0  0  0  0  0  0  0  0  0  0
   70.7847   52.6119   42.0824 C   0  0  0  0  0  0  0  0  0  0  0  0
   72.7390   56.0510   42.0774 C   0  0  0  0  0  0  0  0  0  0  0  0
   71.4273   53.7703   42.0846 C   0  0  0  0  0  0  0  0  0  0  0  0
   70.3510   51.5568   44.7700 O   0  0  0  0  0  0  0  0  0  0  0  0
   72.0263   54.9232   41.7755 N   0  0  0  0  0  0  0  0  0  0  0  0
   71.4232   53.3745   45.8619 N   0  0  0  0  0  0  0  0  0  0  0  0
   70.6230   52.1048   43.4572 C   0  0  0  0  0  0  0  0  0  0  0  0
   73.3637   55.6695   39.5710 C   0  0  0  0  0  0  0  0  0  0  0  0
   72.1655   55.1763   40.2759 C   0  0  0  0  0  0  0  0  0  0  0  0
  3  2  2  0
  4  1  1  0
  6  1  1  0
  7  3  1  0
  7  5  2  0
  9  6  1  0
  9  7  1  0
 10  2  1  0
 11  2  1  0
 11  5  1  0
 11  8  1  0
 12  4  1  0
 13  9  1  0
 13 12  1  0
M  END
>  <ID>  (1) 
conformer_0

$$$$
