
     RDKit          3D

 11 12  0  0  0  0  0  0  0  0999 V2000
   73.5095   56.8927   41.4602 C   0  0  0  0  0  0  0  0  0  0  0  0
   71.4402   54.1073   42.2780 C   0  0  0  0  0  0  0  0  0  0  0  0
   73.7263   56.3738   40.0958 C   0  0  0  0  0  0  0  0  0  0  0  0
   71.9461   54.9429   41.7983 N   0  0  0  0  0  0  0  0  0  0  0  0
   70.1603   52.0064   44.9981 O   0  0  0  0  0  0  0  0  0  0  0  0
   72.2745   55.6723   41.1791 C   0  0  0  0  0  0  0  0  0  0  0  0
   71.7155   54.3487   45.5113 N   0  0  0  0  0  0  0  0  0  0  0  0
   71.8463   53.9336   43.5388 N   0  0  0  0  0  0  0  0  0  0  0  0
   71.6776   53.8171   44.2495 C   0  0  0  0  0  0  0  0  0  0  0  0
   72.9890   55.0145   39.6892 C   0  0  0  0  0  0  0  0  0  0  0  0
   70.6852   52.6114   43.1279 C   0  0  0  0  0  0  0  0  0  0  0  0
  3  1  1  0
  4  2  1  0
  6  1  1  0
  6  3  1  0
  6  4  1  0
  8  2  1  0
  9  7  1  0
  9  8  1  0
 10  3  1  0
 10  6  1  0
 11  5  1  0
 11  8  1  0
M  END
>  <ID>  (1) 
conformer_0

$$$$
