
     RDKit          3D

 13 14  0  0  0  0  0  0  0  0999 V2000
   71.3844   53.5859   44.2763 C   0  0  0  0  0  0  0  0  0  0  0  0
   73.6670   55.7651   39.5438 C   0  0  0  0  0  0  0  0  0  0  0  0
   71.1556   52.9692   41.7340 C   0  0  0  0  0  0  0  0  0  0  0  0
   70.7933   52.2611   43.0495 C   0  0  0  0  0  0  0  0  0  0  0  0
   72.8100   56.5029   41.6992 C   0  0  0  0  0  0  0  0  0  0  0  0
   70.2211   51.3248   44.7830 O   0  0  0  0  0  0  0  0  0  0  0  0
   72.2108   55.3973   41.7614 N   0  0  0  0  0  0  0  0  0  0  0  0
   71.7762   54.4826   43.7104 N   0  0  0  0  0  0  0  0  0  0  0  0
   71.4553   54.0528   45.4653 N   0  0  0  0  0  0  0  0  0  0  0  0
   73.7201   56.9223   40.7997 C   0  0  0  0  0  0  0  0  0  0  0  0
   71.6442   54.2295   42.7076 C   0  0  0  0  0  0  0  0  0  0  0  0
   70.3179   50.7945   44.4920 C   0  0  0  0  0  0  0  0  0  0  0  0
   72.1860   55.0768   40.2771 C   0  0  0  0  0  0  0  0  0  0  0  0
  4  1  2  0
  4  3  1  0
  7  5  1  0
  8  1  1  0
  9  1  1  0
 10  2  1  0
 10  5  1  0
 11  3  2  0
 11  7  1  0
 11  8  1  0
 12  4  1  0
 12  6  1  0
 13  2  1  0
 13  7  1  0
M  END
>  <ID>  (1) 
conformer_0

$$$$
