
     RDKit          3D

 12 12  0  0  0  0  0  0  0  0999 V2000
   73.9341   56.6436   40.3929 C   0  0  0  0  0  0  0  0  0  0  0  0
   71.4931   53.9719   42.2662 C   0  0  0  0  0  0  0  0  0  0  0  0
   73.1146   56.4503   42.1957 C   0  0  0  0  0  0  0  0  0  0  0  0
   70.8150   52.8591   41.7470 C   0  0  0  0  0  0  0  0  0  0  0  0
   71.3655   54.0184   44.0418 N   0  0  0  0  0  0  0  0  0  0  0  0
   72.1822   55.0060   41.6947 N   0  0  0  0  0  0  0  0  0  0  0  0
   70.4111   52.1751   43.0303 C   0  0  0  0  0  0  0  0  0  0  0  0
   73.2105   55.3530   39.6769 C   0  0  0  0  0  0  0  0  0  0  0  0
   70.8866   53.9273   46.0065 N   0  0  0  0  0  0  0  0  0  0  0  0
   72.3793   55.1702   40.6200 C   0  0  0  0  0  0  0  0  0  0  0  0
   71.1121   53.4801   44.1660 C   0  0  0  0  0  0  0  0  0  0  0  0
   70.3553   51.8154   44.9354 O   0  0  0  0  0  0  0  0  0  0  0  0
  4  2  2  0
  5  2  1  0
  6  2  1  0
  6  3  1  0
  7  4  1  0
  8  1  1  0
 10  6  1  0
 10  8  1  0
 11  5  1  0
 11  7  2  0
 11  9  1  0
 12  7  1  0
M  END
>  <ID>  (1) 
conformer_0

$$$$
