
     RDKit          3D

 11 12  0  0  0  0  0  0  0  0999 V2000
   71.5104   53.8553   44.2854 C   0  0  0  0  0  0  0  0  0  0  0  0
   73.4467   55.4606   39.7584 C   0  0  0  0  0  0  0  0  0  0  0  0
   72.8170   56.4590   42.2946 C   0  0  0  0  0  0  0  0  0  0  0  0
   70.5678   52.4817   43.2965 C   0  0  0  0  0  0  0  0  0  0  0  0
   70.1519   51.5188   44.7096 O   0  0  0  0  0  0  0  0  0  0  0  0
   71.9958   55.0734   41.7259 N   0  0  0  0  0  0  0  0  0  0  0  0
   73.5092   56.7738   40.7102 C   0  0  0  0  0  0  0  0  0  0  0  0
   71.4616   54.0260   42.5351 C   0  0  0  0  0  0  0  0  0  0  0  0
   72.0064   55.1442   40.3870 C   0  0  0  0  0  0  0  0  0  0  0  0
   70.9931   52.4114   42.1259 C   0  0  0  0  0  0  0  0  0  0  0  0
   72.0078   54.2114   45.6700 N   0  0  0  0  0  0  0  0  0  0  0  0
  4  1  1  0
  5  4  1  0
  6  3  1  0
  7  2  1  0
  7  3  1  0
  8  1  1  0
  8  6  1  0
  9  2  1  0
  9  6  1  0
 10  4  1  0
 10  8  1  0
 11  1  1  0
M  END
>  <ID>  (1) 
conformer_0

$$$$
