
     RDKit          3D

 14 15  0  0  0  0  0  0  0  0999 V2000
   73.3020   55.2065   39.5378 C   0  0  0  0  0  0  0  0  0  0  0  0
   71.4002   53.6576   44.1439 C   0  0  0  0  0  0  0  0  0  0  0  0
   70.1952   51.6622   45.2055 O   0  0  0  0  0  0  0  0  0  0  0  0
   73.0703   56.2213   41.6983 C   0  0  0  0  0  0  0  0  0  0  0  0
   72.0475   55.1839   41.7150 N   0  0  0  0  0  0  0  0  0  0  0  0
   74.3162   56.1983   39.9319 C   0  0  0  0  0  0  0  0  0  0  0  0
   71.4258   54.2100   42.2436 C   0  0  0  0  0  0  0  0  0  0  0  0
   71.4402   54.0714   43.3506 N   0  0  0  0  0  0  0  0  0  0  0  0
   70.7775   53.0633   41.5740 C   0  0  0  0  0  0  0  0  0  0  0  0
   71.6812   53.9008   45.2189 N   0  0  0  0  0  0  0  0  0  0  0  0
   70.4296   52.5482   42.8645 C   0  0  0  0  0  0  0  0  0  0  0  0
   70.3711   51.8236   44.8770 N   0  0  0  0  0  0  0  0  0  0  0  0
   73.3681   57.1616   41.3633 C   0  0  0  0  0  0  0  0  0  0  0  0
   71.6196   55.4940   40.5103 C   0  0  0  0  0  0  0  0  0  0  0  0
  5  4  1  0
  6  1  1  0
  7  5  1  0
  8  2  1  0
  8  7  1  0
  9  7  2  0
 10  2  1  0
 11  8  1  0
 11  9  1  0
 12  3  1  0
 12 11  1  0
 13  4  1  0
 13  6  1  0
 14  1  1  0
 14  5  1  0
M  END
>  <ID>  (1) 
conformer_0

$$$$
