
     RDKit          3D

 14 15  0  0  0  0  0  0  0  0999 V2000
   74.1051   56.3786   39.7135 C   0  0  0  0  0  0  0  0  0  0  0  0
   70.5993   52.3162   43.1628 C   0  0  0  0  0  0  0  0  0  0  0  0
   71.8247   54.6511   43.8959 N   0  0  0  0  0  0  0  0  0  0  0  0
   72.8476   56.3440   41.8690 C   0  0  0  0  0  0  0  0  0  0  0  0
   73.6547   57.0399   41.1033 C   0  0  0  0  0  0  0  0  0  0  0  0
   70.4566   51.5502   44.8914 O   0  0  0  0  0  0  0  0  0  0  0  0
   71.2408   53.0377   42.1260 C   0  0  0  0  0  0  0  0  0  0  0  0
   72.0942   55.1053   41.6766 N   0  0  0  0  0  0  0  0  0  0  0  0
   71.4800   54.1065   42.5331 C   0  0  0  0  0  0  0  0  0  0  0  0
   69.9962   50.6424   43.8125 C   0  0  0  0  0  0  0  0  0  0  0  0
   71.0600   54.1857   45.7460 N   0  0  0  0  0  0  0  0  0  0  0  0
   72.9387   55.3809   39.4746 C   0  0  0  0  0  0  0  0  0  0  0  0
   71.1270   53.5544   44.5070 C   0  0  0  0  0  0  0  0  0  0  0  0
   71.9357   55.0073   40.5399 C   0  0  0  0  0  0  0  0  0  0  0  0
  5  1  1  0
  5  4  2  0
  7  2  2  0
  8  4  1  0
  9  3  2  0
  9  7  1  0
  9  8  1  0
 10  2  1  0
 10  6  1  0
 12  1  1  0
 13  2  1  0
 13  3  1  0
 13 11  1  0
 14  8  1  0
 14 12  1  0
M  END
>  <ID>  (1) 
conformer_0

$$$$
