
     RDKit          3D

 14 15  0  0  0  0  0  0  0  0999 V2000
   74.1111   56.6555   40.1153 C   0  0  0  0  0  0  0  0  0  0  0  0
   71.4227   53.7977   44.5347 C   0  0  0  0  0  0  0  0  0  0  0  0
   70.7619   52.9665   42.4081 C   0  0  0  0  0  0  0  0  0  0  0  0
   70.3767   52.3148   44.9673 N   0  0  0  0  0  0  0  0  0  0  0  0
   73.5878   57.0653   41.5925 C   0  0  0  0  0  0  0  0  0  0  0  0
   72.3151   55.0335   41.5667 N   0  0  0  0  0  0  0  0  0  0  0  0
   72.3978   55.0821   40.0891 C   0  0  0  0  0  0  0  0  0  0  0  0
   70.3011   52.1964   43.5913 C   0  0  0  0  0  0  0  0  0  0  0  0
   72.0218   54.6537   43.2821 N   0  0  0  0  0  0  0  0  0  0  0  0
   71.6447   54.4493   45.3573 N   0  0  0  0  0  0  0  0  0  0  0  0
   74.0292   55.6961   39.4062 C   0  0  0  0  0  0  0  0  0  0  0  0
   71.6684   54.2069   42.6450 C   0  0  0  0  0  0  0  0  0  0  0  0
   71.7130   54.9711   39.3684 C   0  0  0  0  0  0  0  0  0  0  0  0
   73.0686   56.0771   42.0165 C   0  0  0  0  0  0  0  0  0  0  0  0
  4  2  2  0
  5  1  1  0
  7  6  1  0
  8  3  2  0
  8  4  1  0
  9  2  1  0
 10  2  1  0
 11  1  1  0
 11  7  1  0
 12  3  1  0
 12  6  1  0
 12  9  2  0
 13  7  2  3
 14  5  1  0
 14  6  1  0
M  END
>  <ID>  (1) 
conformer_0

$$$$
