
     RDKit          3D

 11 11  0  0  0  0  0  0  0  0999 V2000
   73.0807   55.6701   39.8048 C   0  0  0  0  0  0  0  0  0  0  0  0
   71.2891   53.3706   42.0897 C   0  0  0  0  0  0  0  0  0  0  0  0
   71.7351   54.3270   43.4329 C   0  0  0  0  0  0  0  0  0  0  0  0
   73.0577   56.4602   41.6293 C   0  0  0  0  0  0  0  0  0  0  0  0
   71.2356   53.6411   44.1791 N   0  0  0  0  0  0  0  0  0  0  0  0
   71.5920   54.4722   45.6755 N   0  0  0  0  0  0  0  0  0  0  0  0
   69.8738   51.6504   44.9438 O   0  0  0  0  0  0  0  0  0  0  0  0
   70.6631   52.6893   43.3579 C   0  0  0  0  0  0  0  0  0  0  0  0
   69.9909   50.8541   44.0224 C   0  0  0  0  0  0  0  0  0  0  0  0
   72.2382   55.1440   40.5039 C   0  0  0  0  0  0  0  0  0  0  0  0
   74.1713   56.6922   39.9955 C   0  0  0  0  0  0  0  0  0  0  0  0
  3  2  2  0
  5  3  1  0
  6  5  1  0
  8  2  1  0
  8  5  1  0
  9  7  1  0
  9  8  1  0
 10  1  1  0
 10  2  1  0
 10  4  1  0
 11  1  1  0
M  END
>  <ID>  (1) 
conformer_0

$$$$
