
     RDKit          3D

 16 18  0  0  0  0  0  0  0  0999 V2000
   71.4680   53.9293   45.1200 C   0  0  0  0  0  0  0  0  0  0  0  0
   73.2193   54.9186   39.8687 C   0  0  0  0  0  0  0  0  0  0  0  0
   70.6867   52.3527   44.3996 C   0  0  0  0  0  0  0  0  0  0  0  0
   70.8929   52.8175   41.8580 C   0  0  0  0  0  0  0  0  0  0  0  0
   72.8794   56.4567   41.8858 C   0  0  0  0  0  0  0  0  0  0  0  0
   72.0974   55.1731   41.9252 N   0  0  0  0  0  0  0  0  0  0  0  0
   71.3580   54.0161   42.2224 C   0  0  0  0  0  0  0  0  0  0  0  0
   73.7522   56.8619   41.4363 C   0  0  0  0  0  0  0  0  0  0  0  0
   69.7544   51.1988   43.1267 N   0  0  0  0  0  0  0  0  0  0  0  0
   72.0622   54.8552   45.3225 N   0  0  0  0  0  0  0  0  0  0  0  0
   71.1883   53.3637   45.1096 N   0  0  0  0  0  0  0  0  0  0  0  0
   69.9559   51.7430   45.8332 Cl  0  0  0  0  0  0  0  0  0  0  0  0
   71.8448   54.2529   43.5703 C   0  0  0  0  0  0  0  0  0  0  0  0
   70.3837   52.2994   43.0662 C   0  0  0  0  0  0  0  0  0  0  0  0
   73.9495   56.4705   39.5995 C   0  0  0  0  0  0  0  0  0  0  0  0
   72.1205   55.4343   40.4494 C   0  0  0  0  0  0  0  0  0  0  0  0
  6  5  1  0
  7  4  2  0
  7  6  1  0
  8  5  1  0
 10  1  1  0
 11  1  2  0
 11  3  1  0
 12  3  1  0
 13  1  1  0
 13  7  1  0
 14  3  2  0
 14  4  1  0
 14  9  1  0
 15  2  1  0
 15  8  1  0
 16  2  1  0
 16  5  1  0
 16  6  1  0
M  END
>  <ID>  (1) 
conformer_0

$$$$
