
     RDKit          3D

 13 14  0  0  0  0  0  0  0  0999 V2000
   73.5858   55.7059   39.5662 C   0  0  0  0  0  0  0  0  0  0  0  0
   70.3118   51.9304   43.1965 C   0  0  0  0  0  0  0  0  0  0  0  0
   71.2446   53.8229   42.5250 C   0  0  0  0  0  0  0  0  0  0  0  0
   72.2082   55.0733   40.3910 C   0  0  0  0  0  0  0  0  0  0  0  0
   70.6911   52.8335   42.2341 C   0  0  0  0  0  0  0  0  0  0  0  0
   72.1280   55.1690   41.9607 N   0  0  0  0  0  0  0  0  0  0  0  0
   73.9278   56.6428   40.6434 C   0  0  0  0  0  0  0  0  0  0  0  0
   71.7360   54.3615   43.6581 C   0  0  0  0  0  0  0  0  0  0  0  0
   69.7683   51.8517   45.9282 Cl  0  0  0  0  0  0  0  0  0  0  0  0
   71.6444   54.2070   45.8144 N   0  0  0  0  0  0  0  0  0  0  0  0
   72.7228   56.2840   42.0089 C   0  0  0  0  0  0  0  0  0  0  0  0
   70.5836   52.5101   44.5361 C   0  0  0  0  0  0  0  0  0  0  0  0
   71.3359   53.7468   45.0419 C   0  0  0  0  0  0  0  0  0  0  0  0
  4  1  1  0
  5  2  2  0
  5  3  1  0
  6  3  1  0
  6  4  1  0
  7  1  1  0
  8  3  2  0
 11  6  1  0
 11  7  1  0
 12  2  1  0
 12  9  1  0
 13  8  1  0
 13 10  1  0
 13 12  2  0
M  END
>  <ID>  (1) 
conformer_0

$$$$
