
     RDKit          3D

 15 14  0  0  0  0  0  0  0  0999 V2000
   74.1031   56.4235   39.5307 C   0  0  0  0  0  0  0  0  0  0  0  0
   70.4950   52.9138   43.1885 C   0  0  0  0  0  0  0  0  0  0  0  0
   72.8637   56.0675   41.4974 C   0  0  0  0  0  0  0  0  0  0  0  0
   72.2847   55.1163   41.9004 N   0  0  0  0  0  0  0  0  0  0  0  0
   74.0142   56.8665   40.8193 C   0  0  0  0  0  0  0  0  0  0  0  0
   70.1611   52.1503   46.0229 O   0  0  0  0  0  0  0  0  0  0  0  0
   70.5963   52.8811   44.4999 N   0  0  0  0  0  0  0  0  0  0  0  0
   71.5413   54.1434   44.8143 C   0  0  0  0  0  0  0  0  0  0  0  0
   70.7877   53.4747   42.2187 C   0  0  0  0  0  0  0  0  0  0  0  0
   69.7532   51.6615   45.0864 C   0  0  0  0  0  0  0  0  0  0  0  0
   71.7877   54.2393   40.0286 C   0  0  0  0  0  0  0  0  0  0  0  0
   72.3435   54.8907   43.9460 N   0  0  0  0  0  0  0  0  0  0  0  0
   72.5695   55.2468   39.6571 C   0  0  0  0  0  0  0  0  0  0  0  0
   71.7227   54.3867   42.9346 C   0  0  0  0  0  0  0  0  0  0  0  0
   70.1623   52.3928   43.2690 N   0  0  0  0  0  0  0  0  0  0  0  0
  4  3  1  0
  5  1  1  0
  5  3  1  0
  7  2  1  0
  9  2  1  0
 10  6  1  0
 10  7  1  0
 12  8  1  0
 13  1  1  0
 13 11  1  0
 14  4  1  0
 14  9  2  3
 14 12  1  0
 15  2  2  3
M  END
>  <ID>  (1) 
conformer_0

$$$$
