
     RDKit          3D

 14 15  0  0  0  0  0  0  0  0999 V2000
   74.0094   56.4780   40.0365 C   0  0  0  0  0  0  0  0  0  0  0  0
   71.6452   54.1907   42.4361 C   0  0  0  0  0  0  0  0  0  0  0  0
   71.0717   52.9093   41.5199 C   0  0  0  0  0  0  0  0  0  0  0  0
   73.0512   56.6241   42.4198 C   0  0  0  0  0  0  0  0  0  0  0  0
   72.1287   55.3302   41.8576 N   0  0  0  0  0  0  0  0  0  0  0  0
   73.5054   57.3371   41.2419 C   0  0  0  0  0  0  0  0  0  0  0  0
   71.0735   52.2142   45.5519 O   0  0  0  0  0  0  0  0  0  0  0  0
   70.4781   52.1651   42.7650 C   0  0  0  0  0  0  0  0  0  0  0  0
   71.1200   53.6940   45.7121 C   0  0  0  0  0  0  0  0  0  0  0  0
   71.8554   55.5181   40.7982 C   0  0  0  0  0  0  0  0  0  0  0  0
   69.6064   50.8060   44.1175 C   0  0  0  0  0  0  0  0  0  0  0  0
   71.2007   53.2859   43.9436 C   0  0  0  0  0  0  0  0  0  0  0  0
   69.6587   51.6435   44.4749 O   0  0  0  0  0  0  0  0  0  0  0  0
   72.7020   55.2695   39.6961 C   0  0  0  0  0  0  0  0  0  0  0  0
  3  2  2  0
  5  2  1  0
  5  4  1  0
  6  1  1  0
  6  4  1  0
  8  3  1  0
  9  7  1  0
 10  5  1  0
 12  2  1  0
 12  8  2  0
 12  9  1  0
 13  8  1  0
 13 11  1  0
 14  1  1  0
 14 10  1  0
M  END
>  <ID>  (1) 
conformer_0

$$$$
