
     RDKit          3D

 12 12  0  0  0  0  0  0  0  0999 V2000
   73.8019   56.9868   41.1112 C   0  0  0  0  0  0  0  0  0  0  0  0
   70.4435   52.3556   43.0444 C   0  0  0  0  0  0  0  0  0  0  0  0
   71.0558   52.9956   41.9089 C   0  0  0  0  0  0  0  0  0  0  0  0
   72.4920   54.9957   40.0912 C   0  0  0  0  0  0  0  0  0  0  0  0
   72.2965   55.1372   41.6762 N   0  0  0  0  0  0  0  0  0  0  0  0
   70.0195   52.0566   44.9982 O   0  0  0  0  0  0  0  0  0  0  0  0
   71.6809   54.2128   42.3480 C   0  0  0  0  0  0  0  0  0  0  0  0
   71.9413   54.2852   43.5112 N   0  0  0  0  0  0  0  0  0  0  0  0
   71.2723   54.2138   45.5251 N   0  0  0  0  0  0  0  0  0  0  0  0
   73.9043   56.2289   40.1196 C   0  0  0  0  0  0  0  0  0  0  0  0
   72.9992   56.3577   42.0341 C   0  0  0  0  0  0  0  0  0  0  0  0
   71.3139   53.7602   44.2171 C   0  0  0  0  0  0  0  0  0  0  0  0
  3  2  2  0
  5  4  1  0
  6  2  2  0
  7  3  1  0
  7  5  1  0
  8  7  1  0
 10  1  1  0
 10  4  1  0
 11  1  1  0
 11  5  1  0
 12  8  1  0
 12  9  1  0
M  END
>  <ID>  (1) 
conformer_0

$$$$
