
     RDKit          3D

 13 13  0  0  0  0  0  0  0  0999 V2000
   73.3191   55.7175   39.6070 C   0  0  0  0  0  0  0  0  0  0  0  0
   71.6542   54.0927   43.9113 C   0  0  0  0  0  0  0  0  0  0  0  0
   69.9720   50.5318   42.7437 C   0  0  0  0  0  0  0  0  0  0  0  0
   70.8892   52.8022   41.9002 C   0  0  0  0  0  0  0  0  0  0  0  0
   73.0580   56.2551   42.9534 C   0  0  0  0  0  0  0  0  0  0  0  0
   72.3033   55.2326   41.8670 N   0  0  0  0  0  0  0  0  0  0  0  0
   71.1574   53.3921   43.8720 N   0  0  0  0  0  0  0  0  0  0  0  0
   74.2299   56.8393   39.9384 C   0  0  0  0  0  0  0  0  0  0  0  0
   70.3050   51.5808   44.8051 O   0  0  0  0  0  0  0  0  0  0  0  0
   70.4268   52.1483   43.1753 C   0  0  0  0  0  0  0  0  0  0  0  0
   72.5746   55.6404   40.7272 C   0  0  0  0  0  0  0  0  0  0  0  0
   71.4488   54.1048   41.9599 C   0  0  0  0  0  0  0  0  0  0  0  0
   73.3483   57.4291   41.2491 C   0  0  0  0  0  0  0  0  0  0  0  0
  6  5  1  0
  7  2  1  0
  8  1  1  0
 10  3  1  0
 10  4  1  0
 10  7  1  0
 10  9  1  0
 11  1  1  0
 11  6  1  0
 12  2  2  0
 12  4  1  0
 12  6  1  0
 13  8  1  0
M  END
>  <ID>  (1) 
conformer_0

$$$$
