
     RDKit          3D

 15 16  0  0  0  0  0  0  0  0999 V2000
   74.2109   56.5053   39.8697 C   0  0  0  0  0  0  0  0  0  0  0  0
   71.5255   54.1777   42.5941 C   0  0  0  0  0  0  0  0  0  0  0  0
   71.7908   55.0533   40.2186 C   0  0  0  0  0  0  0  0  0  0  0  0
   73.5960   57.1542   41.2374 C   0  0  0  0  0  0  0  0  0  0  0  0
   70.5324   52.4682   43.3968 C   0  0  0  0  0  0  0  0  0  0  0  0
   71.9435   55.1492   41.7993 N   0  0  0  0  0  0  0  0  0  0  0  0
   70.2033   51.9778   45.5725 O   0  0  0  0  0  0  0  0  0  0  0  0
   70.6280   52.6870   42.0300 C   0  0  0  0  0  0  0  0  0  0  0  0
   71.7288   54.2293   43.5781 N   0  0  0  0  0  0  0  0  0  0  0  0
   71.6700   54.1015   45.4090 N   0  0  0  0  0  0  0  0  0  0  0  0
   69.4027   50.9781   44.6424 C   0  0  0  0  0  0  0  0  0  0  0  0
   73.1544   55.3623   39.6575 C   0  0  0  0  0  0  0  0  0  0  0  0
   71.3999   53.7148   44.2599 C   0  0  0  0  0  0  0  0  0  0  0  0
   71.3378   53.3654   46.4154 C   0  0  0  0  0  0  0  0  0  0  0  0
   72.6877   56.3809   41.6482 C   0  0  0  0  0  0  0  0  0  0  0  0
  4  1  1  0
  6  2  1  0
  6  3  1  0
  8  2  2  0
  8  5  1  0
  9  2  1  0
 11  7  1  0
 12  1  1  0
 12  3  1  0
 13  5  2  0
 13  9  1  0
 13 10  1  0
 14  7  1  0
 14 10  1  0
 15  4  1  0
 15  6  1  0
M  END
>  <ID>  (1) 
conformer_0

$$$$
