
     RDKit          3D

 14 15  0  0  0  0  0  0  0  0999 V2000
   70.7415   52.3720   43.0265 C   0  0  0  0  0  0  0  0  0  0  0  0
   73.8799   56.2074   39.3007 C   0  0  0  0  0  0  0  0  0  0  0  0
   71.7480   54.5735   43.4727 N   0  0  0  0  0  0  0  0  0  0  0  0
   72.6758   56.6392   41.7250 C   0  0  0  0  0  0  0  0  0  0  0  0
   70.3593   51.8992   44.9177 O   0  0  0  0  0  0  0  0  0  0  0  0
   71.5526   53.1641   41.8782 C   0  0  0  0  0  0  0  0  0  0  0  0
   71.4024   53.6260   44.3969 C   0  0  0  0  0  0  0  0  0  0  0  0
   72.1279   55.2743   41.6853 N   0  0  0  0  0  0  0  0  0  0  0  0
   69.8367   51.0562   42.7222 C   0  0  0  0  0  0  0  0  0  0  0  0
   71.7685   54.1121   42.2947 C   0  0  0  0  0  0  0  0  0  0  0  0
   71.5976   54.1218   45.8146 N   0  0  0  0  0  0  0  0  0  0  0  0
   73.7464   56.6367   41.0081 C   0  0  0  0  0  0  0  0  0  0  0  0
   69.8112   51.1241   44.2334 C   0  0  0  0  0  0  0  0  0  0  0  0
   72.4405   55.3264   40.1189 C   0  0  0  0  0  0  0  0  0  0  0  0
  6  1  2  3
  7  3  1  0
  8  4  1  0
  9  1  1  0
 10  3  2  3
 10  6  1  0
 10  8  1  0
 11  7  1  0
 12  2  1  0
 12  4  1  0
 13  1  1  0
 13  5  1  0
 13  9  1  0
 14  2  1  0
 14  8  1  0
M  END
>  <ID>  (1) 
conformer_0

$$$$
