
     RDKit          3D

 10 10  0  0  0  0  0  0  0  0999 V2000
   71.6577   54.1562   42.6926 C   0  0  0  0  0  0  0  0  0  0  0  0
   73.6371   56.8460   40.6194 C   0  0  0  0  0  0  0  0  0  0  0  0
   72.3398   55.0820   41.7432 N   0  0  0  0  0  0  0  0  0  0  0  0
   72.9556   56.4968   42.1927 C   0  0  0  0  0  0  0  0  0  0  0  0
   70.4478   52.4614   43.1945 C   0  0  0  0  0  0  0  0  0  0  0  0
   71.0026   53.1312   41.8356 C   0  0  0  0  0  0  0  0  0  0  0  0
   73.2097   55.2450   39.5154 C   0  0  0  0  0  0  0  0  0  0  0  0
   71.9473   54.5319   43.3922 N   0  0  0  0  0  0  0  0  0  0  0  0
   71.2816   53.5731   44.2989 C   0  0  0  0  0  0  0  0  0  0  0  0
   72.4584   55.0942   40.3741 C   0  0  0  0  0  0  0  0  0  0  0  0
  3  1  1  0
  4  2  1  0
  4  3  1  0
  6  1  2  0
  6  5  1  0
  8  1  1  0
  9  5  2  0
  9  8  1  0
 10  3  1  0
 10  7  2  3
M  END
>  <ID>  (1) 
conformer_0

$$$$
