
     RDKit          3D

 10 11  0  0  0  0  0  0  0  0999 V2000
   72.9086   55.2317   39.7612 C   0  0  0  0  0  0  0  0  0  0  0  0
   71.6124   54.2628   42.6676 C   0  0  0  0  0  0  0  0  0  0  0  0
   71.9101   54.5336   43.8922 N   0  0  0  0  0  0  0  0  0  0  0  0
   70.0599   51.4507   44.7544 O   0  0  0  0  0  0  0  0  0  0  0  0
   73.9173   56.3622   39.9981 C   0  0  0  0  0  0  0  0  0  0  0  0
   72.0536   55.1487   41.9278 N   0  0  0  0  0  0  0  0  0  0  0  0
   70.9394   53.0483   42.0866 C   0  0  0  0  0  0  0  0  0  0  0  0
   72.4601   56.0246   41.3191 C   0  0  0  0  0  0  0  0  0  0  0  0
   70.8285   52.9865   43.5688 C   0  0  0  0  0  0  0  0  0  0  0  0
   73.7914   56.9121   41.6195 C   0  0  0  0  0  0  0  0  0  0  0  0
  3  2  1  0
  5  1  1  0
  6  2  1  0
  7  2  1  0
  8  1  1  0
  8  6  1  0
  9  2  1  0
  9  4  1  0
  9  7  2  0
 10  5  1  0
 10  8  1  0
M  END
>  <ID>  (1) 
conformer_0

$$$$
