
     RDKit          3D

 15 15  0  0  0  0  0  0  0  0999 V2000
   73.1465   55.3503   39.3488 C   0  0  0  0  0  0  0  0  0  0  0  0
   71.6255   54.4496   42.3410 C   0  0  0  0  0  0  0  0  0  0  0  0
   73.2025   56.6530   41.7757 C   0  0  0  0  0  0  0  0  0  0  0  0
   72.3701   55.4963   41.7014 N   0  0  0  0  0  0  0  0  0  0  0  0
   70.4695   52.4415   42.7999 C   0  0  1  0  0  0  0  0  0  0  0  0
   71.1281   53.5420   42.0200 C   0  0  0  0  0  0  0  0  0  0  0  0
   74.2673   56.3883   39.6503 C   0  0  0  0  0  0  0  0  0  0  0  0
   71.8981   54.4530   45.1588 N   0  0  0  0  0  0  0  0  0  0  0  0
   69.8440   51.4447   44.9773 O   0  0  0  0  0  0  0  0  0  0  0  0
   71.3697   53.9564   43.6761 N   0  0  0  0  0  0  0  0  0  0  0  0
   69.8943   51.1179   42.5117 N   0  0  0  0  0  0  0  0  0  0  0  0
   70.2296   51.3939   44.1212 C   0  0  1  0  0  0  0  0  0  0  0  0
   73.2975   57.5698   41.2675 C   0  0  0  0  0  0  0  0  0  0  0  0
   71.6131   53.7394   44.1916 C   0  0  0  0  0  0  0  0  0  0  0  0
   72.1828   55.4771   40.5596 C   0  0  0  0  0  0  0  0  0  0  0  0
  4  2  1  0
  4  3  1  0
  6  2  2  3
  6  5  1  0
  7  1  1  0
 10  2  1  0
  5 11  1  6
 12  5  1  0
 12  9  1  1
 12 11  1  0
 13  3  2  3
 14  8  1  0
 14 10  1  0
 15  1  1  0
 15  4  1  0
M  END
>  <ID>  (1) 
conformer_0

$$$$
