
     RDKit          3D

 12 13  0  0  0  0  0  0  0  0999 V2000
   73.6695   56.7079   41.2649 C   0  0  0  0  0  0  0  0  0  0  0  0
   71.2382   53.6604   44.4242 C   0  0  0  0  0  0  0  0  0  0  0  0
   72.0860   54.8594   41.7613 N   0  0  0  0  0  0  0  0  0  0  0  0
   70.5570   52.8752   41.9761 C   0  0  0  0  0  0  0  0  0  0  0  0
   74.1022   56.4179   39.7094 C   0  0  0  0  0  0  0  0  0  0  0  0
   70.0567   51.8963   44.9241 O   0  0  0  0  0  0  0  0  0  0  0  0
   70.3893   52.2950   43.2435 C   0  0  0  0  0  0  0  0  0  0  0  0
   72.9257   56.1002   42.0857 C   0  0  0  0  0  0  0  0  0  0  0  0
   71.3894   54.0164   42.7272 C   0  0  0  0  0  0  0  0  0  0  0  0
   72.0750   54.7356   40.2705 C   0  0  0  0  0  0  0  0  0  0  0  0
   71.7118   54.6234   43.7503 N   0  0  0  0  0  0  0  0  0  0  0  0
   73.2697   55.4621   39.5613 C   0  0  0  0  0  0  0  0  0  0  0  0
  5  1  1  0
  7  4  2  0
  7  6  2  0
  8  1  2  0
  8  3  1  0
  9  2  1  0
  9  3  1  0
  9  4  1  0
 10  3  1  0
 11  2  1  0
 11  9  1  0
 12  5  1  0
 12 10  1  0
M  END
>  <ID>  (1) 
conformer_0

$$$$
