
     RDKit          3D

 15 16  0  0  0  0  0  0  0  0999 V2000
   73.5542   57.2263   41.0844 C   0  0  0  0  0  0  0  0  0  0  0  0
   71.5804   53.9389   42.4675 C   0  0  0  0  0  0  0  0  0  0  0  0
   73.0664   56.3013   41.8835 C   0  0  0  0  0  0  0  0  0  0  0  0
   72.3662   55.1657   41.6610 N   0  0  0  0  0  0  0  0  0  0  0  0
   71.7732   54.5595   43.6050 N   0  0  0  0  0  0  0  0  0  0  0  0
   69.8623   51.9106   45.2467 O   0  0  0  0  0  0  0  0  0  0  0  0
   74.0741   56.6818   39.7519 C   0  0  0  0  0  0  0  0  0  0  0  0
   69.9398   51.1563   42.3294 N   0  0  0  0  0  0  0  0  0  0  0  0
   70.3596   52.2607   43.0379 C   0  0  0  0  0  0  0  0  0  0  0  0
   71.1992   53.0758   41.9179 C   0  0  0  0  0  0  0  0  0  0  0  0
   71.5644   54.1945   45.7591 N   0  0  0  0  0  0  0  0  0  0  0  0
   71.3138   53.5780   44.3666 C   0  0  0  0  0  0  0  0  0  0  0  0
   70.7140   52.7013   44.5245 N   0  0  0  0  0  0  0  0  0  0  0  0
   72.2851   55.1892   40.4299 C   0  0  0  0  0  0  0  0  0  0  0  0
   73.1736   55.4156   39.5306 C   0  0  0  0  0  0  0  0  0  0  0  0
  3  1  1  0
  4  2  1  0
  4  3  1  0
  5  2  1  0
  7  1  1  0
  9  8  1  0
 10  2  2  0
 10  9  1  0
 12  5  2  0
 12 11  1  0
 13  6  1  0
 13  9  1  0
 13 12  1  0
 14  4  1  0
 15  7  1  0
 15 14  1  0
M  END
>  <ID>  (1) 
conformer_0

$$$$
