
     RDKit          3D

 10 10  0  0  0  0  0  0  0  0999 V2000
   71.4381   53.8767   42.6760 C   0  0  0  0  0  0  0  0  0  0  0  0
   73.7256   56.6159   40.6185 C   0  0  0  0  0  0  0  0  0  0  0  0
   72.3208   55.6809   41.2804 C   0  0  0  0  0  0  0  0  0  0  0  0
   73.2985   55.7405   39.5533 C   0  0  0  0  0  0  0  0  0  0  0  0
   71.9740   54.9467   42.0628 N   0  0  0  0  0  0  0  0  0  0  0  0
   70.3179   52.2171   43.1284 C   0  0  0  0  0  0  0  0  0  0  0  0
   70.0307   51.2879   44.8587 O   0  0  0  0  0  0  0  0  0  0  0  0
   70.9544   52.7849   44.5740 N   0  0  0  0  0  0  0  0  0  0  0  0
   71.4194   53.4096   44.3215 C   0  0  0  0  0  0  0  0  0  0  0  0
   70.9421   53.0455   42.0027 C   0  0  0  0  0  0  0  0  0  0  0  0
  3  2  1  0
  4  2  1  0
  5  1  1  0
  5  3  1  0
  8  6  1  0
  8  7  1  0
  9  1  2  0
  9  8  1  0
 10  1  1  0
 10  6  2  0
M  END
>  <ID>  (1) 
conformer_0

$$$$
