
     RDKit          3D

 12 12  0  0  0  0  0  0  0  0999 V2000
   73.5358   55.9645   39.5444 C   0  0  0  0  0  0  0  0  0  0  0  0
   71.3999   53.9083   44.4597 C   0  0  0  0  0  0  0  0  0  0  0  0
   71.2728   53.6981   42.2241 C   0  0  0  0  0  0  0  0  0  0  0  0
   73.2481   56.4756   41.7726 C   0  0  0  0  0  0  0  0  0  0  0  0
   72.5281   55.3228   41.6062 N   0  0  0  0  0  0  0  0  0  0  0  0
   70.5002   52.9664   44.3455 N   0  0  0  0  0  0  0  0  0  0  0  0
   69.9961   51.1527   42.9890 N   0  0  0  0  0  0  0  0  0  0  0  0
   71.8278   54.5855   45.1567 N   0  0  0  0  0  0  0  0  0  0  0  0
   73.9104   57.1380   40.5599 C   0  0  0  0  0  0  0  0  0  0  0  0
   70.6234   52.4687   43.1901 C   0  0  0  0  0  0  0  0  0  0  0  0
   71.7761   54.4955   42.5222 C   0  0  0  0  0  0  0  0  0  0  0  0
   72.4790   55.2307   40.3338 C   0  0  0  0  0  0  0  0  0  0  0  0
  5  4  1  0
  6  2  2  3
  8  2  1  0
  9  1  1  0
  9  4  1  0
 10  3  1  0
 10  6  1  0
 10  7  2  3
 11  3  2  3
 11  5  1  0
 12  1  1  0
 12  5  1  0
M  END
>  <ID>  (1) 
conformer_0

$$$$
