
     RDKit          3D

 14 14  0  0  0  0  0  0  0  0999 V2000
   73.3563   55.4364   39.5011 C   0  0  0  0  0  0  0  0  0  0  0  0
   71.1753   53.3407   44.7542 C   0  0  0  0  0  0  0  0  0  0  0  0
   70.8116   52.7394   41.8818 C   0  0  0  0  0  0  0  0  0  0  0  0
   71.3350   53.8429   42.0246 C   0  0  0  0  0  0  0  0  0  0  0  0
   71.9378   54.7543   41.5730 N   0  0  0  0  0  0  0  0  0  0  0  0
   74.0180   56.3880   39.6336 C   0  0  0  0  0  0  0  0  0  0  0  0
   72.3267   55.4193   40.6962 C   0  0  0  0  0  0  0  0  0  0  0  0
   70.2111   51.6853   44.7830 O   0  0  0  0  0  0  0  0  0  0  0  0
   71.7193   54.4586   44.0779 N   0  0  0  0  0  0  0  0  0  0  0  0
   71.4316   54.0315   45.7585 N   0  0  0  0  0  0  0  0  0  0  0  0
   70.4663   52.2229   43.2863 C   0  0  2  0  0  0  0  0  0  0  0  0
   69.5991   50.5299   42.4876 C   0  0  0  0  0  0  0  0  0  0  0  0
   73.2070   56.8146   41.3167 C   0  0  0  0  0  0  0  0  0  0  0  0
   71.7256   54.3131   43.4678 C   0  0  0  0  0  0  0  0  0  0  0  0
  4  3  2  3
  5  4  1  0
  6  1  1  0
  7  1  1  0
  7  5  1  0
  9  2  2  3
 10  2  1  0
 11  3  1  0
 11  8  1  0
 11 12  1  6
 13  6  1  0
 13  7  1  0
 14  4  1  0
 14  9  1  0
M  END
>  <ID>  (1) 
conformer_0

$$$$
