
     RDKit          3D

 12 14  0  0  0  0  0  0  0  0999 V2000
   71.6295   54.2794   42.2856 C   0  0  0  0  0  0  0  0  0  0  0  0
   73.7626   55.9668   39.9414 C   0  0  0  0  0  0  0  0  0  0  0  0
   72.0409   54.8036   43.4287 N   0  0  0  0  0  0  0  0  0  0  0  0
   70.0695   51.8243   44.8656 O   0  0  0  0  0  0  0  0  0  0  0  0
   71.0832   53.1916   41.8770 C   0  0  0  0  0  0  0  0  0  0  0  0
   72.3165   55.3502   41.7638 N   0  0  0  0  0  0  0  0  0  0  0  0
   72.7333   56.0321   40.9771 C   0  0  0  0  0  0  0  0  0  0  0  0
   71.2097   54.0817   45.7277 N   0  0  0  0  0  0  0  0  0  0  0  0
   71.3340   53.7321   44.3146 C   0  0  0  0  0  0  0  0  0  0  0  0
   73.8338   56.9933   41.1851 C   0  0  0  0  0  0  0  0  0  0  0  0
   70.6461   52.5354   43.1498 C   0  0  0  0  0  0  0  0  0  0  0  0
   70.3145   50.9737   43.2155 C   0  0  0  0  0  0  0  0  0  0  0  0
  3  1  1  0
  5  1  2  0
  6  1  1  0
  6  3  1  0
  7  2  1  0
  7  6  1  0
  9  3  1  0
  9  8  1  0
 10  2  1  0
 10  7  1  0
 11  5  1  0
 11  9  2  0
 12  4  1  0
 12 11  1  0
M  END
>  <ID>  (1) 
conformer_0

$$$$
