
     RDKit          3D

 10 11  0  0  0  0  0  0  0  0999 V2000
   71.3087   53.6532   44.1144 C   0  0  0  0  0  0  0  0  0  0  0  0
   73.4480   55.4610   39.5583 C   0  0  0  0  0  0  0  0  0  0  0  0
   70.5051   52.3400   43.2413 C   0  0  0  0  0  0  0  0  0  0  0  0
   72.0066   55.1960   40.2715 C   0  0  0  0  0  0  0  0  0  0  0  0
   72.0479   55.0334   41.8469 N   0  0  0  0  0  0  0  0  0  0  0  0
   74.1454   56.8203   39.8458 C   0  0  0  0  0  0  0  0  0  0  0  0
   71.3334   53.9224   42.6150 C   0  0  0  0  0  0  0  0  0  0  0  0
   71.4256   54.2854   45.1951 N   0  0  0  0  0  0  0  0  0  0  0  0
   73.3641   57.1292   41.4048 C   0  0  0  0  0  0  0  0  0  0  0  0
   72.8262   56.1586   42.0895 C   0  0  0  0  0  0  0  0  0  0  0  0
  3  1  1  0
  4  2  1  0
  5  4  1  0
  6  2  1  0
  7  1  1  0
  7  3  1  0
  7  5  1  0
  8  1  1  0
  9  6  1  0
 10  5  1  0
 10  9  1  0
M  END
>  <ID>  (1) 
conformer_0

$$$$
