
     RDKit          3D

 15 16  0  0  0  0  0  0  0  0999 V2000
   70.8204   52.8711   44.0966 C   0  0  0  0  0  0  0  0  0  0  0  0
   73.3672   56.9599   41.1047 C   0  0  0  0  0  0  0  0  0  0  0  0
   71.5957   54.1810   44.2728 C   0  0  0  0  0  0  0  0  0  0  0  0
   72.9448   56.1853   41.7841 C   0  0  0  0  0  0  0  0  0  0  0  0
   72.0129   55.0611   41.6452 N   0  0  0  0  0  0  0  0  0  0  0  0
   73.2071   55.4043   39.6319 C   0  0  0  0  0  0  0  0  0  0  0  0
   70.6564   51.7489   45.4073 O   0  0  0  0  0  0  0  0  0  0  0  0
   71.9507   54.7028   43.6129 N   0  0  0  0  0  0  0  0  0  0  0  0
   70.9570   53.3268   42.0928 C   0  0  0  0  0  0  0  0  0  0  0  0
   71.3322   54.1196   42.2196 C   0  0  0  0  0  0  0  0  0  0  0  0
   70.5177   51.9079   45.0160 N   0  0  0  0  0  0  0  0  0  0  0  0
   71.8971   54.9420   40.2463 C   0  0  0  0  0  0  0  0  0  0  0  0
   72.1012   54.6026   45.9801 C   0  0  0  0  0  0  0  0  0  0  0  0
   74.3072   56.3610   39.7262 C   0  0  0  0  0  0  0  0  0  0  0  0
   70.3284   52.2870   42.5807 C   0  0  0  0  0  0  0  0  0  0  0  0
  3  1  2  0
  4  2  1  0
  5  4  1  0
  8  3  1  0
 10  5  1  0
 10  8  1  0
 10  9  1  0
 11  1  1  0
 11  7  2  0
 12  5  1  0
 12  6  1  0
 13  3  1  0
 14  2  1  0
 14  6  1  0
 15  1  1  0
 15  9  1  0
M  END
>  <ID>  (1) 
conformer_0

$$$$
