
     RDKit          3D

 11 10  0  0  0  0  0  0  0  0999 V2000
   73.6532   56.8186   40.5942 C   0  0  0  0  0  0  0  0  0  0  0  0
   71.3493   54.2377   42.2275 C   0  0  0  0  0  0  0  0  0  0  0  0
   71.5105   53.9097   44.1252 C   0  0  0  0  0  0  0  0  0  0  0  0
   72.5016   56.0013   41.1395 C   0  0  0  0  0  0  0  0  0  0  0  0
   70.3289   51.9330   44.9776 O   0  0  0  0  0  0  0  0  0  0  0  0
   71.9721   55.2029   41.6250 N   0  0  0  0  0  0  0  0  0  0  0  0
   73.8922   55.7556   39.5519 C   0  0  0  0  0  0  0  0  0  0  0  0
   69.8166   50.8637   44.1398 C   0  0  0  0  0  0  0  0  0  0  0  0
   70.5840   52.7530   43.1313 C   0  0  0  0  0  0  0  0  0  0  0  0
   70.6625   53.2179   41.7340 C   0  0  0  0  0  0  0  0  0  0  0  0
   71.7425   54.2597   43.4084 N   0  0  0  0  0  0  0  0  0  0  0  0
  4  1  1  0
  6  2  1  0
  6  4  1  0
  7  1  1  0
  8  3  1  0
  8  5  1  0
 10  2  2  3
 10  9  1  0
 11  2  1  0
 11  3  1  0
M  END
>  <ID>  (1) 
conformer_0

$$$$
