
     RDKit          3D

 14 15  0  0  0  0  0  0  0  0999 V2000
   72.0109   54.4500   43.8063 C   0  0  0  0  0  0  0  0  0  0  0  0
   73.5248   57.3954   41.2410 C   0  0  0  0  0  0  0  0  0  0  0  0
   73.0483   54.8657   39.7768 C   0  0  0  0  0  0  0  0  0  0  0  0
   70.6133   52.3163   43.1493 C   0  0  0  0  0  0  0  0  0  0  0  0
   70.4846   51.8254   44.9873 O   0  0  0  0  0  0  0  0  0  0  0  0
   72.7227   56.6246   42.1432 C   0  0  0  0  0  0  0  0  0  0  0  0
   72.0946   55.2825   41.9567 N   0  0  0  0  0  0  0  0  0  0  0  0
   71.3179   53.7617   42.2076 C   0  0  2  0  0  0  0  0  0  0  0  0
   69.7074   50.3894   43.2562 C   0  0  0  0  0  0  0  0  0  0  0  0
   72.0772   55.1277   40.4687 C   0  0  0  0  0  0  0  0  0  0  0  0
   70.8043   53.7455   42.2084 N   0  0  0  0  0  0  0  0  0  0  0  0
   69.7815   50.7909   44.2604 C   0  0  0  0  0  0  0  0  0  0  0  0
   73.8593   56.2512   39.9648 C   0  0  0  0  0  0  0  0  0  0  0  0
   71.2635   53.2769   44.4846 C   0  0  1  0  0  0  0  0  0  0  0  0
  6  2  1  0
  7  6  1  0
  8  1  1  0
  8  7  1  6
 10  3  1  0
 10  7  1  0
 11  4  1  0
 11  8  1  0
 12  5  1  0
 12  9  2  3
 13  2  1  0
 13  3  1  0
 14  1  1  0
 14  4  1  0
 14  5  1  6
M  END
>  <ID>  (1) 
conformer_0

$$$$
