
     RDKit          3D

 15 15  0  0  0  0  0  0  0  0999 V2000
   73.9894   56.5476   39.4522 C   0  0  0  0  0  0  0  0  0  0  0  0
   71.7275   54.4504   44.7354 C   0  0  0  0  0  0  0  0  0  0  0  0
   71.8349   54.1460   44.0399 N   0  0  0  0  0  0  0  0  0  0  0  0
   73.1318   56.8223   41.9792 C   0  0  0  0  0  0  0  0  0  0  0  0
   70.6043   52.3326   42.2211 C   0  0  0  0  0  0  0  0  0  0  0  0
   72.0618   55.2471   41.8132 N   0  0  0  0  0  0  0  0  0  0  0  0
   69.6681   51.6222   44.2049 O   0  0  0  0  0  0  0  0  0  0  0  0
   71.6949   54.8880   45.6341 N   0  0  0  0  0  0  0  0  0  0  0  0
   73.7121   57.1305   40.7347 C   0  0  0  0  0  0  0  0  0  0  0  0
   70.9997   52.8659   41.7537 C   0  0  0  0  0  0  0  0  0  0  0  0
   70.1214   50.4693   44.0707 C   0  0  0  0  0  0  0  0  0  0  0  0
   71.6215   54.2266   42.4134 C   0  0  0  0  0  0  0  0  0  0  0  0
   72.1043   55.3242   40.6600 C   0  0  0  0  0  0  0  0  0  0  0  0
   72.7910   54.9680   39.8791 C   0  0  0  0  0  0  0  0  0  0  0  0
   70.7403   52.7322   43.8664 C   0  0  0  0  0  0  0  0  0  0  0  0
  3  2  1  0
  6  4  1  0
  8  2  1  0
  9  1  1  0
  9  4  1  0
 10  5  1  0
 11  7  1  0
 12  3  1  0
 12  6  1  0
 12 10  2  0
 13  6  1  0
 14 13  2  3
 15  3  1  0
 15  5  2  0
 15  7  1  0
M  END
>  <ID>  (1) 
conformer_0

$$$$
