
     RDKit          3D

 13 13  0  0  0  0  0  0  0  0999 V2000
   74.0046   56.6148   40.2169 C   0  0  0  0  0  0  0  0  0  0  0  0
   71.6874   54.0687   42.2702 C   0  0  0  0  0  0  0  0  0  0  0  0
   71.0417   52.9618   41.6915 C   0  0  0  0  0  0  0  0  0  0  0  0
   71.6759   54.3307   43.5822 N   0  0  0  0  0  0  0  0  0  0  0  0
   73.1382   57.1777   41.5217 C   0  0  0  0  0  0  0  0  0  0  0  0
   72.2131   54.9091   41.9259 N   0  0  0  0  0  0  0  0  0  0  0  0
   72.6966   55.7396   41.4972 C   0  0  0  0  0  0  0  0  0  0  0  0
   70.2635   52.0138   45.0862 O   0  0  0  0  0  0  0  0  0  0  0  0
   71.2751   54.1731   45.6967 N   0  0  0  0  0  0  0  0  0  0  0  0
   71.2626   53.7763   44.4219 C   0  0  0  0  0  0  0  0  0  0  0  0
   69.6113   51.7415   43.1431 N   0  0  0  0  0  0  0  0  0  0  0  0
   70.4397   52.4898   42.9965 C   0  0  0  0  0  0  0  0  0  0  0  0
   73.0837   55.4112   39.8380 C   0  0  0  0  0  0  0  0  0  0  0  0
  3  2  1  0
  4  2  2  3
  5  1  1  0
  6  2  1  0
  7  5  1  0
  7  6  1  0
 10  4  1  0
 10  9  1  0
 11  8  1  0
 12  3  2  3
 12 11  1  0
 13  1  1  0
 13  7  1  0
M  END
>  <ID>  (1) 
conformer_0

$$$$
