
     RDKit          3D

 11 12  0  0  0  0  0  0  0  0999 V2000
   73.6697   55.4297   39.6939 C   0  0  0  0  0  0  0  0  0  0  0  0
   71.3578   53.5712   44.4855 C   0  0  0  0  0  0  0  0  0  0  0  0
   72.5100   56.4423   41.8695 C   0  0  0  0  0  0  0  0  0  0  0  0
   71.9605   55.0992   41.8457 N   0  0  0  0  0  0  0  0  0  0  0  0
   73.6231   56.6214   40.5403 C   0  0  0  0  0  0  0  0  0  0  0  0
   70.5575   52.4706   42.5587 C   0  0  0  0  0  0  0  0  0  0  0  0
   70.4270   51.8040   45.1561 O   0  0  0  0  0  0  0  0  0  0  0  0
   70.9389   52.4289   43.5311 N   0  0  0  0  0  0  0  0  0  0  0  0
   71.5600   54.1405   45.3046 N   0  0  0  0  0  0  0  0  0  0  0  0
   71.5252   54.0507   42.6509 C   0  0  0  0  0  0  0  0  0  0  0  0
   71.9865   54.9715   40.5539 C   0  0  0  0  0  0  0  0  0  0  0  0
  4  3  1  0
  5  1  1  0
  5  3  1  0
  8  2  1  0
  8  6  1  0
  8  7  1  0
  9  2  1  0
 10  2  2  0
 10  4  1  0
 10  6  1  0
 11  1  1  0
 11  4  1  0
M  END
>  <ID>  (1) 
conformer_0

$$$$
