
     RDKit          3D

 10 10  0  0  0  0  0  0  0  0999 V2000
   71.4933   54.1446   42.2837 C   0  0  0  0  0  0  0  0  0  0  0  0
   73.4028   55.5173   39.6192 C   0  0  0  0  0  0  0  0  0  0  0  0
   72.9000   55.9384   41.2470 C   0  0  0  0  0  0  0  0  0  0  0  0
   71.2589   53.5909   43.9679 C   0  0  0  0  0  0  0  0  0  0  0  0
   70.7110   53.1023   41.6624 C   0  0  0  0  0  0  0  0  0  0  0  0
   70.0889   51.9678   45.1092 O   0  0  0  0  0  0  0  0  0  0  0  0
   72.2943   55.1328   41.3972 N   0  0  0  0  0  0  0  0  0  0  0  0
   73.8082   56.9279   40.9234 C   0  0  0  0  0  0  0  0  0  0  0  0
   70.3326   52.4669   43.1387 C   0  0  0  0  0  0  0  0  0  0  0  0
   72.9275   55.4359   43.0485 O   0  0  0  0  0  0  0  0  0  0  0  0
  3  2  1  0
  4  1  2  0
  5  1  1  0
  7  1  1  0
  7  3  1  0
  8  3  1  0
  9  4  1  0
  9  5  2  0
  9  6  1  0
 10  7  1  0
M  END
>  <ID>  (1) 
conformer_0

$$$$
