
     RDKit          3D

 13 15  0  0  0  0  0  0  0  0999 V2000
   73.8114   55.7709   39.6815 C   0  0  0  0  0  0  0  0  0  0  0  0
   71.3551   54.0586   42.2538 C   0  0  0  0  0  0  0  0  0  0  0  0
   72.0515   55.1819   40.1544 C   0  0  0  0  0  0  0  0  0  0  0  0
   70.5681   52.9309   42.2797 C   0  0  0  0  0  0  0  0  0  0  0  0
   72.0180   55.0392   41.5992 N   0  0  0  0  0  0  0  0  0  0  0  0
   69.7346   50.8858   42.5274 C   0  0  0  0  0  0  0  0  0  0  0  0
   71.9047   54.2784   43.6312 N   0  0  0  0  0  0  0  0  0  0  0  0
   69.8749   51.5386   44.7603 O   0  0  0  0  0  0  0  0  0  0  0  0
   73.6432   56.7495   41.1956 C   0  0  0  0  0  0  0  0  0  0  0  0
   70.2849   52.1244   43.3708 C   0  0  0  0  0  0  0  0  0  0  0  0
   72.8342   56.0163   42.1798 C   0  0  0  0  0  0  0  0  0  0  0  0
   70.7786   52.6347   44.7870 N   0  0  0  0  0  0  0  0  0  0  0  0
   71.4140   53.7780   44.2459 C   0  0  0  0  0  0  0  0  0  0  0  0
  3  1  1  0
  4  2  2  0
  5  2  1  0
  5  3  1  0
  7  2  1  0
  9  1  1  0
 10  4  1  0
 10  6  1  0
 10  8  1  0
 11  5  1  0
 11  9  1  0
 12  8  1  0
 12 10  1  0
 13  7  1  0
 13 12  1  0
M  END
>  <ID>  (1) 
conformer_0

$$$$
