
     RDKit          3D

 14 14  0  0  0  0  0  0  0  0999 V2000
   71.7997   53.9403   42.0000 C   0  0  0  0  0  0  0  0  0  0  0  0
   74.2213   56.4334   40.0636 C   0  0  0  0  0  0  0  0  0  0  0  0
   71.3415   52.8342   41.5146 C   0  0  0  0  0  0  0  0  0  0  0  0
   72.5405   55.9195   41.2641 C   0  0  0  0  0  0  0  0  0  0  0  0
   72.2634   55.0499   41.7297 N   0  0  0  0  0  0  0  0  0  0  0  0
   70.3763   51.8136   45.2768 O   0  0  0  0  0  0  0  0  0  0  0  0
   70.9151   53.1601   44.6640 C   0  0  0  0  0  0  0  0  0  0  0  0
   70.9761   53.8691   45.9585 N   0  0  0  0  0  0  0  0  0  0  0  0
   70.3776   52.2805   43.3908 N   0  0  0  0  0  0  0  0  0  0  0  0
   73.2451   57.1741   41.3414 C   0  0  0  0  0  0  0  0  0  0  0  0
   71.7540   54.6973   44.1519 N   0  0  0  0  0  0  0  0  0  0  0  0
   71.4330   54.2516   43.6655 C   0  0  0  0  0  3  0  0  0  0  0  0
   70.6003   52.1971   42.6462 C   0  0  0  0  0  0  0  0  0  0  0  0
   73.4409   55.0227   39.6496 C   0  0  0  0  0  0  0  0  0  0  0  0
  3  1  2  0
  5  1  1  0
  5  4  1  0
  7  6  1  0
  8  7  1  0
  9  7  1  0
 10  2  1  0
 10  4  1  0
 12  1  1  0
 12  7  1  0
 12 11  1  0
 13  3  1  0
 13  9  2  0
 14  2  1  0
M  RAD  1  12   2
M  END
>  <ID>  (1) 
conformer_0

$$$$
