
     RDKit          3D

 11 12  0  0  0  0  0  0  0  0999 V2000
   71.3008   53.6037   44.3922 C   0  0  0  0  0  0  0  0  0  0  0  0
   73.9778   56.6957   40.7685 C   0  0  0  0  0  0  0  0  0  0  0  0
   72.9785   56.2369   41.8218 C   0  0  0  0  0  0  0  0  0  0  0  0
   71.2886   53.8286   42.5288 C   0  0  0  0  0  0  0  0  0  0  0  0
   72.1959   54.9950   41.3447 N   0  0  0  0  0  0  0  0  0  0  0  0
   70.4692   52.7541   42.3224 C   0  0  0  0  0  0  0  0  0  0  0  0
   70.3886   52.4359   43.7503 C   0  0  0  0  0  0  0  0  0  0  0  0
   72.1971   55.0870   40.1011 C   0  0  0  0  0  0  0  0  0  0  0  0
   73.7737   55.9770   39.4891 C   0  0  0  0  0  0  0  0  0  0  0  0
   71.4908   54.0206   45.6933 N   0  0  0  0  0  0  0  0  0  0  0  0
   70.2029   51.8004   45.0973 O   0  0  0  0  0  0  0  0  0  0  0  0
  3  2  1  0
  4  1  1  0
  5  3  1  0
  5  4  1  0
  6  4  2  0
  7  1  1  0
  7  6  1  0
  8  5  1  0
  9  2  1  0
  9  8  1  0
 10  1  1  0
 11  7  1  0
M  END
>  <ID>  (1) 
conformer_0

$$$$
