
     RDKit          3D

 13 12  0  0  0  0  0  0  0  0999 V2000
   71.1743   53.7919   44.6028 C   0  0  0  0  0  0  0  0  0  0  0  0
   74.1366   55.9002   39.1468 C   0  0  0  0  0  0  0  0  0  0  0  0
   72.9990   56.4902   41.9696 C   0  0  0  0  0  0  0  0  0  0  0  0
   71.9793   55.1199   41.8847 N   0  0  0  0  0  0  0  0  0  0  0  0
   73.9201   56.6337   40.3728 C   0  0  0  0  0  0  0  0  0  0  0  0
   70.6082   52.5631   43.0319 C   0  0  0  0  0  0  0  0  0  0  0  0
   70.0287   52.0937   45.4391 O   0  0  0  0  0  0  0  0  0  0  0  0
   70.1253   51.0351   44.1855 C   0  0  0  0  0  0  0  0  0  0  0  0
   71.4786   54.1388   42.7911 C   0  0  0  0  0  0  0  0  0  0  0  0
   70.9045   52.8876   43.0147 N   0  0  0  0  0  0  0  0  0  0  0  0
   71.4410   54.2642   45.2877 N   0  0  0  0  0  0  0  0  0  0  0  0
   71.8399   55.3817   40.7445 C   0  0  0  0  0  0  0  0  0  0  0  0
   72.4182   55.2357   39.8664 C   0  0  0  0  0  0  0  0  0  0  0  0
  4  3  1  0
  5  2  1  0
  5  3  1  0
  8  6  1  0
  8  7  1  0
  9  1  2  3
  9  4  1  0
 10  6  1  0
 10  9  1  0
 11  1  1  0
 12  4  1  0
 13 12  2  3
M  END
>  <ID>  (1) 
conformer_0

$$$$
