
     RDKit          3D

 13 14  0  0  0  0  0  0  0  0999 V2000
   73.9636   56.0471   39.6122 C   0  0  0  0  0  0  0  0  0  0  0  0
   70.6591   52.6493   43.1256 C   0  0  0  0  0  0  0  0  0  0  0  0
   73.1904   56.9706   41.1645 C   0  0  0  0  0  0  0  0  0  0  0  0
   71.9891   55.0725   42.0503 N   0  0  0  0  0  0  0  0  0  0  0  0
   72.3450   54.7488   43.6204 N   0  0  0  0  0  0  0  0  0  0  0  0
   70.1528   51.8446   44.9592 O   0  0  0  0  0  0  0  0  0  0  0  0
   71.5273   53.9780   44.4573 C   0  0  0  0  0  0  0  0  0  0  0  0
   72.2797   55.8695   41.3528 C   0  0  0  0  0  0  0  0  0  0  0  0
   70.5980   53.1199   41.7476 C   0  0  0  0  0  0  0  0  0  0  0  0
   71.5498   53.6915   45.8001 N   0  0  0  0  0  0  0  0  0  0  0  0
   72.9374   55.2182   39.8008 C   0  0  0  0  0  0  0  0  0  0  0  0
   71.5196   54.1170   42.5538 C   0  0  0  0  0  0  0  0  0  0  0  0
   70.2504   51.0039   44.0081 C   0  0  0  0  0  0  0  0  0  0  0  0
  3  1  1  0
  7  5  2  3
  8  3  1  0
  8  4  1  0
  9  2  2  0
 10  7  1  0
 11  1  1  0
 11  8  1  0
 12  2  1  0
 12  4  1  0
 12  5  1  0
 12  9  1  0
 13  2  1  0
 13  6  1  0
M  END
>  <ID>  (1) 
conformer_0

$$$$
