
     RDKit          3D

 13 14  0  0  0  0  0  0  0  0999 V2000
   74.0948   56.4105   39.9144 C   0  0  0  0  0  0  0  0  0  0  0  0
   71.7267   54.3464   42.3540 C   0  0  0  0  0  0  0  0  0  0  0  0
   72.3814   55.9647   41.1892 C   0  0  0  0  0  0  0  0  0  0  0  0
   73.8434   57.0807   41.2323 C   0  0  0  0  0  0  0  0  0  0  0  0
   71.0956   52.9786   41.9264 C   0  0  0  0  0  0  0  0  0  0  0  0
   72.1442   55.2628   41.8317 N   0  0  0  0  0  0  0  0  0  0  0  0
   70.9239   51.7137   45.3171 O   0  0  0  0  0  0  0  0  0  0  0  0
   71.9938   54.5023   43.6518 N   0  0  0  0  0  0  0  0  0  0  0  0
   70.5378   52.5632   42.8918 C   0  0  0  0  0  0  0  0  0  0  0  0
   71.2193   53.5712   46.0096 C   0  0  0  0  0  0  0  0  0  0  0  0
   71.4353   53.7227   44.1292 C   0  0  0  0  0  0  0  0  0  0  0  0
   72.9436   55.2770   39.6313 C   0  0  0  0  0  0  0  0  0  0  0  0
   69.3971   51.8657   44.0623 O   0  0  0  0  0  0  0  0  0  0  0  0
  4  1  1  0
  4  3  1  0
  5  2  1  0
  6  2  1  0
  6  3  1  0
  8  2  2  0
  9  5  1  0
 10  7  1  0
 11  8  1  0
 11  9  2  0
 11 10  1  0
 12  1  1  0
 12  3  1  0
 13  9  1  0
M  END
>  <ID>  (1) 
conformer_0

$$$$
