
     RDKit          3D

 13 14  0  0  0  0  0  0  0  0999 V2000
   73.9128   56.5556   40.1146 C   0  0  0  0  0  0  0  0  0  0  0  0
   70.4864   52.2965   42.9079 C   0  0  0  0  0  0  0  0  0  0  0  0
   71.2912   53.6433   44.3452 C   0  0  0  0  0  0  0  0  0  0  0  0
   72.9706   56.3078   41.5959 C   0  0  0  0  0  0  0  0  0  0  0  0
   71.4578   54.3505   45.4861 N   0  0  0  0  0  0  0  0  0  0  0  0
   72.1883   55.1965   41.4504 N   0  0  0  0  0  0  0  0  0  0  0  0
   70.9323   53.6825   42.1538 N   0  0  0  0  0  0  0  0  0  0  0  0
   70.6513   51.6846   45.1700 O   0  0  0  0  0  0  0  0  0  0  0  0
   73.6271   55.5944   39.1706 C   0  0  0  0  0  0  0  0  0  0  0  0
   71.4196   54.0521   42.6070 C   0  0  0  0  0  0  0  0  0  0  0  0
   70.2969   52.5483   44.3362 N   0  0  0  0  0  0  0  0  0  0  0  0
   70.0100   51.3486   42.7518 N   0  0  0  0  0  0  0  0  0  0  0  0
   72.1324   55.0746   40.1570 C   0  0  0  0  0  0  0  0  0  0  0  0
  4  1  1  0
  5  3  1  0
  6  4  1  0
  7  2  2  0
  9  1  1  0
 10  3  2  0
 10  6  1  0
 10  7  1  0
 11  2  1  0
 11  3  1  0
 11  8  1  0
 12  2  1  0
 13  6  1  0
 13  9  1  0
M  END
>  <ID>  (1) 
conformer_0

$$$$
