
     RDKit          3D

 11 10  0  0  0  0  0  0  0  0999 V2000
   73.8330   56.6188   40.6396 C   0  0  0  0  0  0  0  0  0  0  0  0
   71.5572   54.1680   42.9285 C   0  0  0  0  0  0  0  0  0  0  0  0
   72.3788   55.7254   41.0341 C   0  0  0  0  0  0  0  0  0  0  0  0
   70.3106   51.8930   45.0385 O   0  0  0  0  0  0  0  0  0  0  0  0
   71.9540   54.9614   41.5941 N   0  0  0  0  0  0  0  0  0  0  0  0
   70.8713   52.7849   41.9245 C   0  0  0  0  0  0  0  0  0  0  0  0
   73.7188   55.6053   39.6837 C   0  0  0  0  0  0  0  0  0  0  0  0
   71.5227   54.2968   45.3738 N   0  0  0  0  0  0  0  0  0  0  0  0
   70.6272   52.3832   44.4522 N   0  0  0  0  0  0  0  0  0  0  0  0
   70.7298   52.8809   42.8166 C   0  0  0  0  0  0  0  0  0  0  0  0
   71.6057   54.2475   43.4419 N   0  0  0  0  0  0  0  0  0  0  0  0
  3  1  1  0
  5  2  1  0
  5  3  1  0
  7  1  1  0
  9  4  2  0
 10  2  2  3
 10  6  1  0
 10  9  1  0
 11  2  1  0
 11  8  1  0
M  END
>  <ID>  (1) 
conformer_0

$$$$
