
     RDKit          3D

 14 15  0  0  0  0  0  0  0  0999 V2000
   73.9502   56.6595   40.0385 C   0  0  0  0  0  0  0  0  0  0  0  0
   71.3775   53.6835   44.1621 C   0  0  0  0  0  0  0  0  0  0  0  0
   71.7997   54.5931   44.0366 N   0  0  0  0  0  0  0  0  0  0  0  0
   72.0951   55.2624   41.7132 N   0  0  0  0  0  0  0  0  0  0  0  0
   70.2323   51.8442   45.1092 O   0  0  0  0  0  0  0  0  0  0  0  0
   71.2921   53.0409   41.7745 C   0  0  0  0  0  0  0  0  0  0  0  0
   72.7106   56.7868   41.9594 C   0  0  0  0  0  0  0  0  0  0  0  0
   73.3710   57.1692   41.3174 C   0  0  0  0  0  0  0  0  0  0  0  0
   71.8556   54.4428   42.3519 C   0  0  0  0  0  0  0  0  0  0  0  0
   71.5998   53.7699   45.7768 N   0  0  0  0  0  0  0  0  0  0  0  0
   70.0988   50.8644   44.1439 C   0  0  0  0  0  0  0  0  0  0  0  0
   70.9353   52.6021   42.8724 C   0  0  0  0  0  0  0  0  0  0  0  0
   71.7988   55.2455   40.2184 C   0  0  0  0  0  0  0  0  0  0  0  0
   73.0840   54.9774   39.8510 C   0  0  0  0  0  0  0  0  0  0  0  0
  3  2  2  0
  7  4  1  0
  8  1  1  0
  8  7  2  0
  9  3  1  0
  9  4  1  0
  9  6  2  0
 10  2  1  0
 11  5  1  0
 12  2  1  0
 12  6  1  0
 12 11  1  0
 13  4  1  0
 14  1  1  0
 14 13  1  0
M  END
>  <ID>  (1) 
conformer_0

$$$$
