
     RDKit          3D

 13 13  0  0  0  0  0  0  0  0999 V2000
   71.0350   53.2218   44.1344 C   0  0  0  0  0  0  0  0  0  0  0  0
   74.3200   57.2105   40.1147 C   0  0  0  0  0  0  0  0  0  0  0  0
   70.4192   52.1228   43.0354 C   0  0  0  0  0  0  0  0  0  0  0  0
   72.7870   56.3541   41.9562 C   0  0  0  0  0  0  0  0  0  0  0  0
   72.1732   55.1278   41.8195 N   0  0  0  0  0  0  0  0  0  0  0  0
   70.8915   53.0643   41.7252 C   0  0  0  0  0  0  0  0  0  0  0  0
   73.7499   55.8007   39.9701 C   0  0  0  0  0  0  0  0  0  0  0  0
   71.8603   54.3347   46.0174 C   0  0  0  0  0  0  0  0  0  0  0  0
   71.4256   54.0167   42.8525 C   0  0  0  0  0  0  0  0  0  0  0  0
   70.4112   52.0014   45.3995 O   0  0  0  0  0  0  0  0  0  0  0  0
   71.5721   54.3041   43.6461 N   0  0  0  0  0  0  0  0  0  0  0  0
   72.3256   55.1618   40.2727 C   0  0  0  0  0  0  0  0  0  0  0  0
   73.2701   57.3821   41.2390 C   0  0  0  0  0  0  0  0  0  0  0  0
  5  4  1  0
  6  3  1  0
  7  2  1  0
  8  3  1  0
  9  5  1  0
  9  6  2  3
 10  1  1  0
 11  1  1  0
 11  9  1  0
 12  5  1  0
 12  7  1  0
 13  2  1  0
 13  4  1  0
M  END
>  <ID>  (1) 
conformer_0

$$$$
