
     RDKit          3D

 14 16  0  0  0  0  0  0  0  0999 V2000
   71.4152   53.5914   44.3150 C   0  0  0  0  0  0  0  0  0  0  0  0
   73.8284   57.2598   40.6217 C   0  0  0  0  0  0  0  0  0  0  0  0
   72.9917   56.6474   41.7788 C   0  0  0  0  0  0  0  0  0  0  0  0
   70.9075   52.7580   41.8798 C   0  0  0  0  0  0  0  0  0  0  0  0
   72.2228   55.1205   41.5471 N   0  0  0  0  0  0  0  0  0  0  0  0
   71.5279   54.1097   42.5021 C   0  0  0  0  0  0  0  0  0  0  0  0
   70.3421   51.5826   45.4682 O   0  0  0  0  0  0  0  0  0  0  0  0
   69.6863   50.7604   44.3362 C   0  0  0  0  0  0  0  0  0  0  0  0
   73.6254   56.1760   39.6316 C   0  0  0  0  0  0  0  0  0  0  0  0
   72.4050   54.9532   40.1145 C   0  0  0  0  0  0  0  0  0  0  0  0
   70.5176   52.4007   43.3179 C   0  0  0  0  0  0  0  0  0  0  0  0
   70.5272   51.9364   44.0375 N   0  0  0  0  0  0  0  0  0  0  0  0
   71.9268   54.4010   45.0697 N   0  0  0  0  0  0  0  0  0  0  0  0
   71.3016   53.8826   43.6002 N   0  0  0  0  0  0  0  0  0  0  0  0
  3  2  1  0
  5  3  1  0
  6  4  2  0
  6  5  1  0
  8  7  1  0
  9  2  1  0
 10  5  1  0
 10  9  1  0
 11  4  1  0
 12  7  1  0
 12  8  1  0
 12 11  1  0
 13  1  1  0
 14  1  1  0
 14  6  1  0
 14 11  1  0
M  END
>  <ID>  (1) 
conformer_0

$$$$
