
     RDKit          3D

 11 11  0  0  0  0  0  0  0  0999 V2000
   74.2793   56.3048   39.8921 C   0  0  0  0  0  0  0  0  0  0  0  0
   70.3031   52.1812   42.7785 C   0  0  0  0  0  0  0  0  0  0  0  0
   72.6111   55.8248   41.5477 C   0  0  0  0  0  0  0  0  0  0  0  0
   70.2675   51.6945   45.1605 O   0  0  0  0  0  0  0  0  0  0  0  0
   71.5269   54.2624   43.5917 N   0  0  0  0  0  0  0  0  0  0  0  0
   73.6910   56.9490   41.2702 C   0  0  0  0  0  0  0  0  0  0  0  0
   72.0126   55.0763   41.9313 N   0  0  0  0  0  0  0  0  0  0  0  0
   71.3035   54.0082   42.3120 C   0  0  0  0  0  0  0  0  0  0  0  0
   69.6925   50.6530   42.6332 C   0  0  0  0  0  0  0  0  0  0  0  0
   71.1476   53.3549   44.1373 C   0  0  0  0  0  0  0  0  0  0  0  0
   72.7881   55.5628   39.8683 C   0  0  0  0  0  0  0  0  0  0  0  0
  6  1  1  0
  6  3  1  0
  7  3  1  0
  8  5  1  0
  8  7  1  0
  9  2  1  0
 10  2  1  0
 10  4  2  0
 10  5  1  0
 11  1  1  0
 11  3  1  0
M  END
>  <ID>  (1) 
conformer_0

$$$$
