
     RDKit          3D

 13 14  0  0  0  0  0  0  0  0999 V2000
   73.1241   54.9008   39.8315 C   0  0  0  0  0  0  0  0  0  0  0  0
   71.6258   54.3565   42.2675 C   0  0  0  0  0  0  0  0  0  0  0  0
   70.8690   53.3462   41.8307 C   0  0  0  0  0  0  0  0  0  0  0  0
   73.9163   56.2012   39.8034 C   0  0  0  0  0  0  0  0  0  0  0  0
   72.4277   55.9805   41.3068 C   0  0  0  0  0  0  0  0  0  0  0  0
   70.6575   51.9240   45.1768 O   0  0  0  0  0  0  0  0  0  0  0  0
   69.6700   50.8909   42.8248 C   0  0  0  0  0  0  0  0  0  0  0  0
   71.4352   53.5924   43.8042 N   0  0  0  0  0  0  0  0  0  0  0  0
   72.1254   55.1810   42.0062 N   0  0  0  0  0  0  0  0  0  0  0  0
   70.3860   52.3650   42.8649 C   0  0  0  0  0  0  0  0  0  0  0  0
   71.8672   54.6067   45.3246 N   0  0  0  0  0  0  0  0  0  0  0  0
   73.4892   56.9985   41.1323 C   0  0  0  0  0  0  0  0  0  0  0  0
   71.4838   53.7814   44.1109 C   0  0  0  0  0  0  0  0  0  0  0  0
  3  2  1  0
  4  1  1  0
  5  1  1  0
  8  2  1  0
  9  2  2  3
  9  5  1  0
 10  3  2  0
 10  7  1  0
 10  8  1  0
 12  4  1  0
 12  5  1  0
 13  6  2  0
 13  8  1  0
 13 11  1  0
M  END
>  <ID>  (1) 
conformer_0

$$$$
