
     RDKit          3D

 11 12  0  0  0  0  0  0  0  0999 V2000
   73.6627   55.6371   39.7589 C   0  0  0  0  0  0  0  0  0  0  0  0
   71.5288   53.9809   42.8301 C   0  0  0  0  0  0  0  0  0  0  0  0
   72.9057   56.4082   42.3596 C   0  0  0  0  0  0  0  0  0  0  0  0
   72.2489   55.0478   41.8305 N   0  0  0  0  0  0  0  0  0  0  0  0
   70.8360   52.9600   41.7355 C   0  0  0  0  0  0  0  0  0  0  0  0
   69.9732   51.7808   45.0828 O   0  0  0  0  0  0  0  0  0  0  0  0
   73.7471   56.9460   41.1191 C   0  0  0  0  0  0  0  0  0  0  0  0
   71.5320   54.1477   43.6951 N   0  0  0  0  0  0  0  0  0  0  0  0
   70.5173   52.6635   43.0943 C   0  0  0  0  0  0  0  0  0  0  0  0
   72.4019   55.2688   40.5350 C   0  0  0  0  0  0  0  0  0  0  0  0
   70.3396   52.2302   44.7351 N   0  0  0  0  0  0  0  0  0  0  0  0
  4  2  1  0
  4  3  1  0
  5  2  1  0
  7  1  1  0
  7  3  1  0
  8  2  1  0
  9  2  1  0
  9  5  1  0
 10  1  1  0
 10  4  1  0
 11  6  2  0
 11  9  1  0
M  END
>  <ID>  (1) 
conformer_0

$$$$
