
     RDKit          3D

 12 12  0  0  0  0  0  0  0  0999 V2000
   71.2238   53.7231   44.0744 C   0  0  0  0  0  0  0  0  0  0  0  0
   73.7843   56.9136   41.4812 C   0  0  0  0  0  0  0  0  0  0  0  0
   70.4000   52.2859   42.9936 C   0  0  0  0  0  0  0  0  0  0  0  0
   72.7501   54.7500   39.8146 C   0  0  0  0  0  0  0  0  0  0  0  0
   72.0750   55.2311   41.9944 N   0  0  0  0  0  0  0  0  0  0  0  0
   72.7223   55.9169   41.5020 C   0  0  0  0  0  0  0  0  0  0  0  0
   70.6548   53.1537   41.6123 C   0  0  0  0  0  0  0  0  0  0  0  0
   71.4934   54.5256   44.9551 N   0  0  0  0  0  0  0  0  0  0  0  0
   70.3546   52.0288   45.0516 O   0  0  0  0  0  0  0  0  0  0  0  0
   71.3470   54.2288   42.5213 C   0  0  0  0  0  0  0  0  0  0  0  0
   73.9912   56.2373   39.9500 C   0  0  0  0  0  0  0  0  0  0  0  0
   70.2110   52.9583   43.3282 N   0  0  0  0  0  0  0  0  0  0  0  0
  6  2  1  0
  6  5  1  0
  7  3  1  0
  8  1  1  0
  9  3  2  0
 10  1  1  0
 10  5  1  0
 10  7  2  0
 11  2  1  0
 11  4  1  0
 12  1  1  0
 12  3  1  0
M  END
>  <ID>  (1) 
conformer_0

$$$$
