
     RDKit          3D

 11 12  0  0  0  0  0  0  0  0999 V2000
   71.6716   54.2015   42.7942 C   0  0  0  0  0  0  0  0  0  0  0  0
   74.0754   56.3500   39.6642 C   0  0  0  0  0  0  0  0  0  0  0  0
   73.5062   56.8813   41.2162 C   0  0  0  0  0  0  0  0  0  0  0  0
   72.2472   54.6786   43.6409 N   0  0  0  0  0  0  0  0  0  0  0  0
   70.4114   52.3666   43.0949 C   0  0  0  0  0  0  0  0  0  0  0  0
   70.9845   53.3168   41.9382 C   0  0  0  0  0  0  0  0  0  0  0  0
   69.9271   51.9159   45.2368 O   0  0  0  0  0  0  0  0  0  0  0  0
   72.6268   55.5939   41.0670 C   0  0  0  0  0  0  0  0  0  0  0  0
   71.1184   54.1564   45.8038 N   0  0  0  0  0  0  0  0  0  0  0  0
   71.1685   53.5951   44.3671 C   0  0  0  0  0  0  0  0  0  0  0  0
   73.0700   55.2561   39.8566 C   0  0  0  0  0  0  0  0  0  0  0  0
  3  2  1  0
  4  1  1  0
  6  1  1  0
  6  5  1  0
  7  5  1  0
  8  3  1  0
  8  6  1  0
 10  4  1  0
 10  5  1  0
 10  9  1  0
 11  2  1  0
 11  8  1  0
M  END
>  <ID>  (1) 
conformer_0

$$$$
