
     RDKit          3D

 15 16  0  0  0  0  0  0  0  0999 V2000
   74.1239   56.8962   41.1772 C   0  0  0  0  0  0  0  0  0  0  0  0
   71.3822   53.9338   44.5220 C   0  0  0  0  0  0  0  0  0  0  0  0
   73.1945   56.1727   41.5849 C   0  0  0  0  0  0  0  0  0  0  0  0
   71.1084   53.4008   42.2708 C   0  0  0  0  0  0  0  0  0  0  0  0
   72.3232   55.2013   41.4921 N   0  0  0  0  0  0  0  0  0  0  0  0
   70.0002   50.6182   43.9507 C   0  0  0  0  0  0  0  0  0  0  0  0
   74.2641   56.7292   39.6734 C   0  0  0  0  0  0  0  0  0  0  0  0
   71.4933   54.2168   45.6522 N   0  0  0  0  0  0  0  0  0  0  0  0
   71.6399   54.3984   42.3349 C   0  0  0  0  0  0  0  0  0  0  0  0
   70.1680   52.8991   44.3392 N   0  0  0  0  0  0  0  0  0  0  0  0
   70.4211   51.4935   45.1770 O   0  0  0  0  0  0  0  0  0  0  0  0
   70.6481   52.6760   43.2931 C   0  0  0  0  0  0  0  0  0  0  0  0
   72.0589   54.8218   43.7397 N   0  0  0  0  0  0  0  0  0  0  0  0
   72.9448   55.4516   39.3974 C   0  0  0  0  0  0  0  0  0  0  0  0
   72.0785   55.1952   40.2069 C   0  0  0  0  0  0  0  0  0  0  0  0
  3  1  1  0
  5  3  1  0
  7  1  1  0
  8  2  1  0
  9  4  1  0
  9  5  1  0
 10  2  1  0
 11  6  1  0
 11 10  1  0
 12  4  2  0
 12 10  1  0
 13  2  1  0
 13  9  2  0
 14  7  1  0
 15  5  1  0
 15 14  1  0
M  END
>  <ID>  (1) 
conformer_0

$$$$
