
     RDKit          3D

 13 14  0  0  0  0  0  0  0  0999 V2000
   74.0778   56.6547   40.1699 C   0  0  0  0  0  0  0  0  0  0  0  0
   71.4743   53.8557   43.9990 C   0  0  0  0  0  0  0  0  0  0  0  0
   73.5398   55.5529   39.8814 C   0  0  0  0  0  0  0  0  0  0  0  0
   70.4234   52.1004   45.2226 O   0  0  0  0  0  0  0  0  0  0  0  0
   72.5809   55.8410   41.5154 C   0  0  0  0  0  0  0  0  0  0  0  0
   71.9838   54.9618   41.8952 N   0  0  0  0  0  0  0  0  0  0  0  0
   71.5833   54.2098   43.5420 N   0  0  0  0  0  0  0  0  0  0  0  0
   70.9693   52.7335   41.6651 C   0  0  0  0  0  0  0  0  0  0  0  0
   71.2673   53.9282   45.9144 C   0  0  0  0  0  0  0  0  0  0  0  0
   71.2303   54.0515   41.9401 C   0  0  0  0  0  0  0  0  0  0  0  0
   69.8892   50.8287   44.1161 C   0  0  0  0  0  0  0  0  0  0  0  0
   70.5393   52.4910   43.0346 C   0  0  0  0  0  0  0  0  0  0  0  0
   73.1847   57.1456   41.4755 C   0  0  0  0  0  0  0  0  0  0  0  0
  3  1  1  0
  5  3  1  0
  6  5  1  0
  7  2  1  0
  9  2  1  0
 10  6  1  0
 10  7  2  0
 10  8  1  0
 11  4  1  0
 12  2  1  0
 12  8  1  0
 12 11  1  0
 13  1  1  0
 13  5  1  0
M  END
>  <ID>  (1) 
conformer_0

$$$$
