
     RDKit          3D

 15 15  0  0  0  0  0  0  0  0999 V2000
   73.3955   54.9110   39.7957 C   0  0  0  0  0  0  0  0  0  0  0  0
   71.5557   53.9006   41.9825 C   0  0  0  0  0  0  0  0  0  0  0  0
   71.9281   54.3596   43.3971 N   0  0  0  0  0  0  0  0  0  0  0  0
   72.9196   56.6758   41.8927 C   0  0  0  0  0  0  0  0  0  0  0  0
   72.1423   55.0041   41.7112 N   0  0  0  0  0  0  0  0  0  0  0  0
   70.2086   52.5000   46.0494 O   0  0  0  0  0  0  0  0  0  0  0  0
   70.9431   52.9041   41.7587 C   0  0  0  0  0  0  0  0  0  0  0  0
   69.4315   51.0540   43.8729 C   0  0  0  0  0  0  0  0  0  0  0  0
   71.6575   54.3333   45.8462 N   0  0  0  0  0  0  0  0  0  0  0  0
   74.1112   56.1365   39.4449 C   0  0  0  0  0  0  0  0  0  0  0  0
   71.5359   53.8556   44.3106 C   0  0  0  0  0  0  0  0  0  0  0  0
   70.6114   52.5846   43.2440 C   0  0  0  0  0  0  0  0  0  0  0  0
   70.2770   51.7208   44.3618 O   0  0  0  0  0  0  0  0  0  0  0  0
   72.2989   55.2249   40.5845 C   0  0  0  0  0  0  0  0  0  0  0  0
   73.3835   57.2156   41.0600 C   0  0  0  0  0  0  0  0  0  0  0  0
  3  2  2  0
  5  2  1  0
  5  4  1  0
  7  2  1  0
  9  6  1  0
 10  1  1  0
 11  3  1  0
 11  9  1  0
 12  7  1  0
 12 11  2  0
 13  8  1  0
 13 12  1  0
 14  1  1  0
 14  5  1  0
 15  4  2  3
M  END
>  <ID>  (1) 
conformer_0

$$$$
