
     RDKit          3D

 12 13  0  0  0  0  0  0  0  0999 V2000
   71.5040   54.0586   44.2029 C   0  0  0  0  0  0  0  0  0  0  0  0
   73.8279   55.6607   39.5482 C   0  0  0  0  0  0  0  0  0  0  0  0
   70.7675   52.8610   41.9372 C   0  0  0  0  0  0  0  0  0  0  0  0
   72.9065   56.6320   41.7103 C   0  0  0  0  0  0  0  0  0  0  0  0
   70.5276   52.4362   43.4674 C   0  0  0  0  0  0  0  0  0  0  0  0
   72.1904   55.2211   41.4811 N   0  0  0  0  0  0  0  0  0  0  0  0
   70.2380   51.7878   45.0329 O   0  0  0  0  0  0  0  0  0  0  0  0
   73.6804   57.0437   40.7214 C   0  0  0  0  0  0  0  0  0  0  0  0
   71.9879   54.9907   45.0704 N   0  0  0  0  0  0  0  0  0  0  0  0
   71.5280   54.0819   42.3981 C   0  0  0  0  0  0  0  0  0  0  0  0
   70.9595   53.7519   44.4829 N   0  0  0  0  0  0  0  0  0  0  0  0
   72.3092   55.1549   40.2736 C   0  0  0  0  0  0  0  0  0  0  0  0
  5  3  1  0
  6  4  1  0
  7  5  2  0
  8  2  1  0
  8  4  1  0
  9  1  1  0
 10  1  1  0
 10  3  2  0
 10  6  1  0
 11  1  1  0
 11  5  1  0
 12  2  1  0
 12  6  1  0
M  END
>  <ID>  (1) 
conformer_0

$$$$
