
     RDKit          3D

 14 14  0  0  0  0  0  0  0  0999 V2000
   71.3753   53.7210   44.5329 C   0  0  0  0  0  0  0  0  0  0  0  0
   73.6959   55.7073   39.4601 C   0  0  0  0  0  0  0  0  0  0  0  0
   70.8564   52.3830   42.0614 C   0  0  0  0  0  0  0  0  0  0  0  0
   71.8348   55.0101   40.1916 C   0  0  0  0  0  0  0  0  0  0  0  0
   72.1475   55.4554   41.4001 N   0  0  0  0  0  0  0  0  0  0  0  0
   70.0643   52.3793   45.8968 O   0  0  0  0  0  0  0  0  0  0  0  0
   70.7170   52.3840   43.5869 C   0  0  0  0  0  0  0  0  0  0  0  0
   73.8555   57.0296   40.6297 C   0  0  0  0  0  0  0  0  0  0  0  0
   69.9245   50.6127   43.8927 C   0  0  0  0  0  0  0  0  0  0  0  0
   71.9652   54.2361   43.7849 N   0  0  0  0  0  0  0  0  0  0  0  0
   72.7347   56.5902   41.4679 C   0  0  0  0  0  0  0  0  0  0  0  0
   71.6551   54.3919   42.7905 C   0  0  0  0  0  0  0  0  0  0  0  0
   70.2832   51.4004   44.2343 O   0  0  0  0  0  0  0  0  0  0  0  0
   71.4871   53.7374   42.0849 C   0  0  0  0  0  0  0  0  0  0  0  0
  5  4  1  0
  6  1  2  0
  7  1  1  0
  7  3  1  0
  8  2  1  0
 10  1  1  0
 11  5  1  0
 11  8  1  0
 12  5  1  0
 12 10  1  0
 13  7  1  0
 13  9  1  0
 14  3  2  0
 14 12  1  0
M  END
>  <ID>  (1) 
conformer_0

$$$$
