
     RDKit          3D

 13 13  0  0  0  0  0  0  0  0999 V2000
   71.2999   53.8209   42.3622 C   0  0  0  0  0  0  0  0  0  0  0  0
   74.0818   56.4226   39.9884 C   0  0  0  0  0  0  0  0  0  0  0  0
   73.4694   56.9384   41.2039 C   0  0  0  0  0  0  0  0  0  0  0  0
   71.9822   54.5081   43.9390 N   0  0  0  0  0  0  0  0  0  0  0  0
   72.1502   55.4976   40.9182 C   0  0  0  0  0  0  0  0  0  0  0  0
   71.8661   54.8013   41.7890 N   0  0  0  0  0  0  0  0  0  0  0  0
   71.2529   53.6504   44.1658 C   0  0  0  0  0  0  0  0  0  0  0  0
   70.1051   51.5464   44.7579 O   0  0  0  0  0  0  0  0  0  0  0  0
   71.2536   53.5221   45.9518 N   0  0  0  0  0  0  0  0  0  0  0  0
   70.3224   51.2676   42.1460 C   0  0  0  0  0  0  0  0  0  0  0  0
   70.6158   52.4457   43.0918 C   0  0  0  0  0  0  0  0  0  0  0  0
   73.0236   55.1539   39.6963 C   0  0  0  0  0  0  0  0  0  0  0  0
   71.0902   53.3312   46.1332 C   0  0  0  0  0  0  0  0  0  0  0  0
  3  2  1  0
  6  1  1  0
  6  5  1  0
  7  1  1  0
  7  4  1  0
  9  7  1  0
 11  1  1  0
 11  7  1  0
 11  8  1  0
 11 10  1  0
 12  2  1  0
 12  5  1  0
 13  9  1  0
M  END
>  <ID>  (1) 
conformer_0

$$$$
