
     RDKit          3D

 13 14  0  0  0  0  0  0  0  0999 V2000
   74.0404   56.6655   40.0336 C   0  0  0  0  0  0  0  0  0  0  0  0
   71.7142   54.0176   42.0434 C   0  0  0  0  0  0  0  0  0  0  0  0
   72.8226   56.6855   42.2647 C   0  0  0  0  0  0  0  0  0  0  0  0
   73.5890   57.6686   41.1565 C   0  0  0  0  0  0  0  0  0  0  0  0
   69.8952   51.7862   45.4208 O   0  0  0  0  0  0  0  0  0  0  0  0
   70.9846   52.6560   41.6778 C   0  0  0  0  0  0  0  0  0  0  0  0
   72.2602   55.2259   41.7205 N   0  0  0  0  0  0  0  0  0  0  0  0
   70.5384   52.1987   43.1229 C   0  0  0  0  0  0  0  0  0  0  0  0
   71.6995   53.9075   43.5409 N   0  0  0  0  0  0  0  0  0  0  0  0
   70.2097   51.9222   44.9078 N   0  0  0  0  0  0  0  0  0  0  0  0
   73.0905   55.3605   39.6003 C   0  0  0  0  0  0  0  0  0  0  0  0
   71.3698   53.6739   43.7443 C   0  0  0  0  0  0  0  0  0  0  0  0
   72.4629   55.5717   40.6380 C   0  0  0  0  0  0  0  0  0  0  0  0
  4  1  1  0
  4  3  1  0
  6  2  2  0
  7  2  1  0
  7  3  1  0
  8  6  1  0
  9  2  1  0
 10  5  1  0
 10  8  1  0
 11  1  1  0
 12  8  2  0
 12  9  1  0
 13  7  1  0
 13 11  1  0
M  END
>  <ID>  (1) 
conformer_0

$$$$
