
     RDKit          3D

 10 10  0  0  0  0  0  0  0  0999 V2000
   73.3004   55.4548   39.8495 C   0  0  0  0  0  0  0  0  0  0  0  0
   71.5276   54.1994   42.3019 C   0  0  0  0  0  0  0  0  0  0  0  0
   70.9461   52.8226   41.9347 C   0  0  0  0  0  0  0  0  0  0  0  0
   72.0583   55.0232   41.9325 N   0  0  0  0  0  0  0  0  0  0  0  0
   72.6425   56.0525   41.6518 C   0  0  0  0  0  0  0  0  0  0  0  0
   71.3364   53.8050   44.1254 C   0  0  0  0  0  0  0  0  0  0  0  0
   74.1174   56.5929   39.9629 C   0  0  0  0  0  0  0  0  0  0  0  0
   70.5084   52.1299   44.8391 O   0  0  0  0  0  0  0  0  0  0  0  0
   70.5317   52.3630   43.3876 C   0  0  0  0  0  0  0  0  0  0  0  0
   73.3124   57.1045   41.4194 C   0  0  0  0  0  0  0  0  0  0  0  0
  3  2  2  0
  4  2  1  0
  5  4  1  0
  6  2  1  0
  7  1  1  0
  9  3  1  0
  9  6  2  0
  9  8  1  0
 10  5  1  0
 10  7  1  0
M  END
>  <ID>  (1) 
conformer_0

$$$$
