
     RDKit          3D

 10 10  0  0  0  0  0  0  0  0999 V2000
   71.3196   53.6690   44.1338 C   0  0  0  0  0  0  0  0  0  0  0  0
   73.9170   56.3671   40.6807 C   0  0  0  0  0  0  0  0  0  0  0  0
   73.1262   55.9312   42.2066 C   0  0  0  0  0  0  0  0  0  0  0  0
   70.4629   52.2831   43.0545 C   0  0  0  0  0  0  0  0  0  0  0  0
   72.1975   55.0859   41.7026 N   0  0  0  0  0  0  0  0  0  0  0  0
   71.7769   54.6243   45.0390 N   0  0  0  0  0  0  0  0  0  0  0  0
   72.0125   55.2292   40.1751 C   0  0  0  0  0  0  0  0  0  0  0  0
   73.6400   55.6946   39.4033 C   0  0  0  0  0  0  0  0  0  0  0  0
   71.4573   54.0020   42.4991 C   0  0  0  0  0  0  0  0  0  0  0  0
   70.8680   53.3717   42.4139 N   0  0  0  0  0  0  0  0  0  0  0  0
  3  2  1  0
  5  3  1  0
  6  1  1  0
  7  5  1  0
  8  2  1  0
  8  7  1  0
  9  1  2  3
  9  5  1  0
 10  4  1  0
 10  9  1  0
M  END
>  <ID>  (1) 
conformer_0

$$$$
