
     RDKit          3D

 13 14  0  0  0  0  0  0  0  0999 V2000
   71.4807   53.8340   44.3507 C   0  0  0  0  0  0  0  0  0  0  0  0
   73.0125   55.1056   39.8807 C   0  0  0  0  0  0  0  0  0  0  0  0
   73.8215   56.1150   39.4785 C   0  0  0  0  0  0  0  0  0  0  0  0
   70.2796   51.4367   44.7070 O   0  0  0  0  0  0  0  0  0  0  0  0
   72.8071   56.0140   41.6528 C   0  0  0  0  0  0  0  0  0  0  0  0
   72.2589   55.2895   42.1230 N   0  0  0  0  0  0  0  0  0  0  0  0
   70.5700   52.5066   43.3551 C   0  0  0  0  0  0  0  0  0  0  0  0
   70.8792   52.9408   42.1756 C   0  0  0  0  0  0  0  0  0  0  0  0
   71.0660   53.6284   46.1538 C   0  0  0  0  0  0  0  0  0  0  0  0
   70.0384   50.9743   43.4272 C   0  0  0  0  0  0  0  0  0  0  0  0
   73.5808   56.9591   41.0792 C   0  0  0  0  0  0  0  0  0  0  0  0
   71.6129   54.3005   42.7025 C   0  0  0  0  0  0  0  0  0  0  0  0
   71.3148   54.2593   42.8372 N   0  0  0  0  0  0  0  0  0  0  0  0
  3  2  1  0
  6  5  1  0
  7  1  1  0
  7  4  1  0
  8  7  1  0
  9  1  1  0
 10  4  1  0
 10  7  1  0
 11  3  1  0
 11  5  1  0
 12  6  1  0
 13  1  1  0
 13  8  1  0
 13 12  1  0
M  END
>  <ID>  (1) 
conformer_0

$$$$
