
     RDKit          3D

 12 14  0  0  0  0  0  0  0  0999 V2000
   71.3019   53.7251   44.6528 C   0  0  0  0  0  0  0  0  0  0  0  0
   73.2030   55.6647   39.6226 C   0  0  0  0  0  0  0  0  0  0  0  0
   70.6649   52.5266   43.3368 C   0  0  0  0  0  0  0  0  0  0  0  0
   72.8660   56.1909   41.9096 C   0  0  0  0  0  0  0  0  0  0  0  0
   72.0983   55.0581   41.7120 N   0  0  0  0  0  0  0  0  0  0  0  0
   71.4509   53.9912   42.8656 C   0  0  0  0  0  0  0  0  0  0  0  0
   73.9613   56.6651   40.4131 C   0  0  0  0  0  0  0  0  0  0  0  0
   71.5653   54.1496   46.0988 N   0  0  0  0  0  0  0  0  0  0  0  0
   71.7675   54.6608   44.2603 N   0  0  0  0  0  0  0  0  0  0  0  0
   70.2990   51.8981   45.2657 O   0  0  0  0  0  0  0  0  0  0  0  0
   71.1849   52.9981   41.8837 C   0  0  0  0  0  0  0  0  0  0  0  0
   72.0620   55.0701   40.2276 C   0  0  0  0  0  0  0  0  0  0  0  0
  3  1  1  0
  5  4  1  0
  6  3  1  0
  6  5  1  0
  7  2  1  0
  7  4  1  0
  8  1  1  0
  9  1  2  0
  9  6  1  0
 10  3  1  0
 11  3  1  0
 11  6  1  0
 12  2  1  0
 12  5  1  0
M  END
>  <ID>  (1) 
conformer_0

$$$$
