
     RDKit          3D

 14 15  0  0  0  0  0  0  0  0999 V2000
   70.6975   52.4051   43.0847 C   0  0  0  0  0  0  0  0  0  0  0  0
   72.3873   54.7130   39.7627 C   0  0  0  0  0  0  0  0  0  0  0  0
   70.7920   52.9180   41.8306 C   0  0  0  0  0  0  0  0  0  0  0  0
   72.2575   55.2426   42.0619 N   0  0  0  0  0  0  0  0  0  0  0  0
   73.2684   56.4517   42.3976 C   0  0  0  0  0  0  0  0  0  0  0  0
   70.2876   51.6388   44.7583 O   0  0  0  0  0  0  0  0  0  0  0  0
   73.5263   57.2268   41.7171 C   0  0  0  0  0  0  0  0  0  0  0  0
   71.8692   54.2622   43.9241 N   0  0  0  0  0  0  0  0  0  0  0  0
   71.7677   54.2708   42.4402 C   0  0  0  0  0  0  0  0  0  0  0  0
   70.4114   50.8124   44.1351 C   0  0  0  0  0  0  0  0  0  0  0  0
   71.9647   55.4896   40.8095 C   0  0  0  0  0  0  0  0  0  0  0  0
   71.3369   53.7965   44.2856 C   0  0  0  0  0  0  0  0  0  0  0  0
   70.8729   54.0252   45.5760 N   0  0  0  0  0  0  0  0  0  0  0  0
   73.5379   56.1468   40.0821 C   0  0  0  0  0  0  0  0  0  0  0  0
  3  1  2  0
  5  4  1  0
  7  5  1  0
  9  3  1  0
  9  4  1  0
  9  8  2  0
 10  1  1  0
 10  6  1  0
 11  2  1  0
 11  4  1  0
 12  1  1  0
 12  8  1  0
 13 12  1  0
 14  7  1  0
 14 11  1  0
M  END
>  <ID>  (1) 
conformer_0

$$$$
