
     RDKit          3D

 13 14  0  0  0  0  0  0  0  0999 V2000
   71.3529   53.7094   44.2390 C   0  0  0  0  0  0  0  0  0  0  0  0
   73.9370   56.7236   40.3438 C   0  0  0  0  0  0  0  0  0  0  0  0
   70.5971   52.4675   43.6330 C   0  0  0  0  0  0  0  0  0  0  0  0
   73.1099   57.0097   42.0319 C   0  0  0  0  0  0  0  0  0  0  0  0
   70.8705   52.0737   45.0965 O   0  0  0  0  0  0  0  0  0  0  0  0
   72.1771   55.2475   41.7824 N   0  0  0  0  0  0  0  0  0  0  0  0
   71.8262   54.3864   43.1648 C   0  0  0  0  0  0  0  0  0  0  0  0
   73.4217   55.4246   39.7887 C   0  0  0  0  0  0  0  0  0  0  0  0
   69.8540   51.1976   42.5463 N   0  0  0  0  0  0  0  0  0  0  0  0
   71.6819   53.3559   46.1656 C   0  0  0  0  0  0  0  0  0  0  0  0
   71.3065   53.9429   41.7948 C   0  0  0  0  0  0  0  0  0  0  0  0
   70.4405   52.2385   42.2500 C   0  0  0  0  0  0  0  0  0  0  0  0
   72.4091   55.5543   40.8816 C   0  0  0  0  0  0  0  0  0  0  0  0
  3  1  2  0
  4  2  1  0
  5  3  1  0
  7  1  1  0
  7  6  1  0
  8  2  1  0
 10  5  1  0
 11  6  1  0
 11  7  1  0
 12  3  1  0
 12  9  1  0
 12 11  2  0
 13  6  1  0
 13  8  1  0
M  END
>  <ID>  (1) 
conformer_0

$$$$
