
     RDKit          3D

 14 15  0  0  0  0  0  0  0  0999 V2000
  -19.4654   -6.7261    5.5872 C   0  0  0  0  0  0  0  0  0  0  0  0
  -19.4293   -7.3286    4.5181 C   0  0  0  0  0  0  0  0  0  0  0  0
  -20.6838   -6.6619    6.2768 O   0  0  0  0  0  0  0  0  0  0  0  0
  -20.4618   -8.2352    4.0090 C   0  0  0  0  0  0  0  0  0  0  0  0
  -18.1500   -7.3769    3.7854 C   0  0  0  0  0  0  0  0  0  0  0  0
  -21.4988   -8.2078    4.2708 O   0  0  0  0  0  0  0  0  0  0  0  0
  -17.2300   -6.6110    4.2498 C   0  0  0  0  0  0  0  0  0  0  0  0
  -17.4511   -5.8809    5.5873 C   0  0  0  0  0  0  0  0  0  0  0  0
  -20.1259   -9.1311    2.9932 O   0  0  0  0  0  0  0  0  0  0  0  0
  -16.2050   -5.1904    6.0404 O   0  0  0  0  0  0  0  0  0  0  0  0
  -18.5053   -5.9690    6.2028 C   0  0  0  0  0  0  0  0  0  0  0  0
  -15.8957   -6.4055    3.6747 O   0  0  0  0  0  0  0  0  0  0  0  0
  -14.9221   -6.1522    4.5767 C   0  0  0  0  0  0  0  0  0  0  0  0
  -15.3540   -4.8931    4.9990 C   0  0  0  0  0  0  0  0  0  0  0  0
  1  2  2  0
  1  3  1  0
  2  4  1  0
  2  5  1  0
  4  6  2  0
  5  7  2  0
  7  8  1  0
  4  9  1  0
  8 10  1  0
  1 11  1  0
  8 11  2  0
  7 12  1  0
 12 13  1  0
 10 14  1  0
 13 14  1  0
M  END
>  <ID>  (1) 
conformer_0

$$$$
