
     RDKit          3D

 14 15  0  0  0  0  0  0  0  0999 V2000
  -18.3870   -6.2244    6.1402 C   0  0  0  0  0  0  0  0  0  0  0  0
  -18.3684   -6.6877    4.9767 C   0  0  0  0  0  0  0  0  0  0  0  0
  -17.2519   -5.5700    6.6080 N   0  0  0  0  0  0  0  0  0  0  0  0
  -16.0931   -5.6533    5.8860 C   0  0  0  0  0  0  0  0  0  0  0  0
  -14.9196   -5.1816    6.1949 N   0  0  0  0  0  0  0  0  0  0  0  0
  -16.1177   -6.3383    4.6379 C   0  0  0  0  0  0  0  0  0  0  0  0
  -17.2839   -6.9331    4.1365 C   0  0  0  0  0  0  0  0  0  0  0  0
  -19.7824   -7.3880    4.5088 C   0  0  0  0  0  0  0  0  0  0  0  0
  -20.7815   -7.2236    5.2106 O   0  0  0  0  0  0  0  0  0  0  0  0
  -14.9115   -6.4386    3.8203 N   0  0  0  0  0  0  0  0  0  0  0  0
  -13.7672   -6.4322    4.5864 C   0  0  0  0  0  0  0  0  0  0  0  0
  -12.5170   -6.7276    4.0648 N   0  0  0  0  0  0  0  0  0  0  0  0
  -19.7687   -8.0127    3.3300 O   0  0  0  0  0  0  0  0  0  0  0  0
  -13.7155   -5.5971    5.5823 C   0  0  0  0  0  0  0  0  0  0  0  0
  1  2  1  0
  1  3  2  0
  3  4  1  0
  4  5  1  0
  4  6  2  0
  2  7  2  0
  6  7  1  0
  2  8  1  0
  8  9  2  0
  6 10  1  0
 10 11  1  0
 11 12  1  0
  8 13  1  0
  5 14  1  0
 11 14  2  0
M  END
>  <ID>  (1) 
conformer_0

$$$$
