
     RDKit          3D

 10 11  0  0  0  0  0  0  0  0999 V2000
  -19.0437   -7.7258    4.1005 C   0  0  0  0  0  0  0  0  0  0  0  0
  -18.2534   -6.7675    4.2728 C   0  0  0  0  0  0  0  0  0  0  0  0
  -16.9418   -6.9724    4.5690 C   0  0  0  0  0  0  0  0  0  0  0  0
  -16.4435   -6.1629    5.6718 C   0  0  0  0  0  0  0  0  0  0  0  0
  -18.8225   -5.5898    4.2053 C   0  0  0  0  0  0  0  0  0  0  0  0
  -18.1528   -4.3562    4.2451 C   0  0  0  0  0  0  0  0  0  0  0  0
  -20.1437   -5.5370    3.7707 C   0  0  0  0  0  0  0  0  0  0  0  0
  -20.9545   -6.5416    3.6372 C   0  0  0  0  0  0  0  0  0  0  0  0
  -20.3672   -7.8092    3.8267 C   0  0  0  0  0  0  0  0  0  0  0  0
  -16.6251   -4.6119    5.0216 C   0  0  0  0  0  0  0  0  0  0  0  0
  1  2  1  0
  2  3  1  0
  3  4  1  0
  2  5  2  0
  5  6  1  0
  5  7  1  0
  7  8  2  0
  1  9  2  0
  8  9  1  0
  4 10  1  0
  6 10  1  0
M  END
>  <ID>  (1) 
conformer_0

$$$$
