
     RDKit          3D

  8  8  0  0  0  0  0  0  0  0999 V2000
  -15.2119   -5.1649    4.8701 C   0  0  0  0  0  0  0  0  0  0  0  0
  -14.4174   -6.2671    4.9405 C   0  0  0  0  0  0  0  0  0  0  0  0
  -13.0872   -6.4043    4.8438 C   0  0  0  0  0  0  0  0  0  0  0  0
  -15.1756   -7.4026    5.4092 O   0  0  0  0  0  0  0  0  0  0  0  0
  -12.3524   -6.1353    5.8670 N   0  0  0  0  0  0  0  0  0  0  0  0
  -16.5359   -7.0539    5.3683 C   0  0  0  0  0  0  0  0  0  0  0  0
  -12.4946   -6.9746    3.8170 N   0  0  0  0  0  0  0  0  0  0  0  0
  -16.6193   -5.6562    5.0581 C   0  0  0  0  0  0  0  0  0  0  0  0
  1  2  2  0
  2  3  1  0
  2  4  1  0
  3  5  2  0
  4  6  1  0
  3  7  1  0
  1  8  1  0
  6  8  2  0
M  END
>  <ID>  (1) 
conformer_0

$$$$
