
     RDKit          3D

  9  8  0  0  0  0  0  0  0  0999 V2000
  -15.0958   -6.9042    5.2877 C   0  0  0  0  0  0  0  0  0  0  0  0
  -16.1530   -6.2469    4.7379 C   0  0  0  0  0  0  0  0  0  0  0  0
  -17.4228   -6.6318    5.1215 C   0  0  0  0  0  0  0  0  0  0  0  0
  -18.4376   -6.7401    4.1319 C   0  0  0  0  0  0  0  0  0  0  0  0
  -13.7984   -6.1859    5.3975 C   0  0  0  0  0  0  0  0  0  0  0  0
  -12.6319   -6.9890    5.0955 N   0  0  0  0  0  0  0  0  0  0  0  0
  -18.4007   -6.3943    3.0702 O   0  0  0  0  0  0  0  0  0  0  0  0
  -19.5632   -7.5105    4.5645 N   0  0  0  0  0  0  0  0  0  0  0  0
  -12.1108   -6.9497    3.8776 C   0  0  0  0  0  0  0  0  0  0  0  0
  1  2  1  0
  2  3  1  0
  3  4  1  0
  1  5  1  0
  5  6  1  0
  4  7  2  0
  4  8  1  0
  6  9  1  0
M  END
>  <ID>  (1) 
conformer_0

$$$$
