
     RDKit          3D

 11 11  0  0  0  0  0  0  0  0999 V2000
  -14.5865   -6.9887    4.9376 C   0  0  0  0  0  0  0  0  0  0  0  0
  -15.5178   -6.0501    4.6869 C   0  0  0  0  0  0  0  0  0  0  0  0
  -16.4098   -6.4108    3.6618 C   0  0  0  0  0  0  0  0  0  0  0  0
  -14.9763   -4.7470    4.4410 C   0  0  0  0  0  0  0  0  0  0  0  0
  -13.2049   -6.6171    4.8166 N   0  0  0  0  0  0  0  0  0  0  0  0
  -12.3854   -7.1238    3.9457 N   0  0  0  0  0  0  0  0  0  0  0  0
  -16.4644   -5.9828    6.0042 C   0  0  0  0  0  0  0  0  0  0  0  0
  -12.8413   -5.6875    5.6886 O   0  0  0  0  0  0  0  0  0  0  0  0
  -11.0956   -6.8606    4.0224 O   0  0  0  0  0  0  0  0  0  0  0  0
  -17.7501   -6.6547    5.6797 C   0  0  0  0  0  0  0  0  0  0  0  0
  -17.8701   -6.7792    4.2690 C   0  0  0  0  0  0  0  0  0  0  0  0
  1  2  1  0
  2  3  1  0
  2  4  1  0
  1  5  1  0
  5  6  1  0
  2  7  1  0
  5  8  1  0
  6  9  1  0
  7 10  1  0
  3 11  1  0
 10 11  1  0
M  END
>  <ID>  (1) 
conformer_0

$$$$
