
     RDKit          3D

 16 17  0  0  0  0  0  0  0  0999 V2000
  -15.2119   -5.1649    4.8701 C   0  0  0  0  0  0  0  0  0  0  0  0
  -16.4299   -5.1988    4.6543 C   0  0  0  0  0  0  0  0  0  0  0  0
  -16.9227   -6.3072    4.0093 C   0  0  0  0  0  0  0  0  0  0  0  0
  -16.1658   -7.4423    3.9533 C   0  0  0  0  0  0  0  0  0  0  0  0
  -18.4120   -6.3599    3.6736 C   0  0  0  0  0  0  0  0  0  0  0  0
  -14.2922   -6.2821    4.7832 C   0  0  0  0  0  0  0  0  0  0  0  0
  -19.3497   -5.9517    4.3899 N   0  0  0  0  0  0  0  0  0  0  0  0
  -20.5427   -5.7516    3.8443 C   0  0  0  0  0  0  0  0  0  0  0  0
  -21.5807   -5.1823    4.3493 O   0  0  0  0  0  0  0  0  0  0  0  0
  -14.8226   -7.3632    4.2896 C   0  0  0  0  0  0  0  0  0  0  0  0
  -19.1468   -5.7388    5.8827 C   0  0  0  0  0  0  0  0  0  0  0  0
  -12.9916   -6.1237    5.1944 N   0  0  0  0  0  0  0  0  0  0  0  0
  -20.3901   -5.7155    2.3721 C   0  0  0  0  0  0  0  0  0  0  0  0
  -18.8496   -6.0513    2.3660 C   0  0  0  0  0  0  0  0  0  0  0  0
  -12.0415   -6.7649    4.5676 O   0  0  0  0  0  0  0  0  0  0  0  0
  -21.0677   -6.8741    1.7800 N   0  0  0  0  0  0  0  0  0  0  0  0
  1  2  2  0
  2  3  1  0
  3  4  2  0
  3  5  1  0
  1  6  1  0
  5  7  1  0
  7  8  1  0
  8  9  2  0
  4 10  1  0
  6 10  2  0
  7 11  1  0
  6 12  1  0
  8 13  1  0
  5 14  1  0
 13 14  1  0
 12 15  1  0
 13 16  1  0
M  END
>  <ID>  (1) 
conformer_0

$$$$
