
     RDKit          3D

 13 14  0  0  0  0  0  0  0  0999 V2000
  -10.9984   -6.9648    4.3974 C   0  0  0  0  0  0  0  0  0  0  0  0
  -11.9204   -6.4574    5.2854 N   0  0  0  0  0  0  0  0  0  0  0  0
  -13.2982   -6.5132    4.9193 C   0  0  0  0  0  0  0  0  0  0  0  0
  -14.2966   -6.0281    5.8157 N   0  0  0  0  0  0  0  0  0  0  0  0
  -15.6226   -6.3699    5.4839 C   0  0  0  0  0  0  0  0  0  0  0  0
  -15.9634   -6.8769    4.3303 C   0  0  0  0  0  0  0  0  0  0  0  0
  -17.4883   -6.8970    4.0932 C   0  0  0  0  0  0  0  0  0  0  0  0
  -18.0524   -7.4569    3.0945 O   0  0  0  0  0  0  0  0  0  0  0  0
  -18.2990   -6.6202    5.1457 N   0  0  0  0  0  0  0  0  0  0  0  0
  -19.7000   -6.8127    5.1643 C   0  0  0  0  0  0  0  0  0  0  0  0
  -17.3103   -5.9485    6.1298 C   0  0  0  0  0  0  0  0  0  0  0  0
  -13.6252   -7.0678    3.7989 C   0  0  0  0  0  0  0  0  0  0  0  0
  -15.0546   -7.1055    3.3714 C   0  0  0  0  0  0  0  0  0  0  0  0
  1  2  1  0
  2  3  1  0
  3  4  1  0
  4  5  2  0
  5  6  1  0
  6  7  1  0
  7  8  2  0
  7  9  1  0
  9 10  1  0
  5 11  1  0
  9 11  1  0
  3 12  2  0
  6 13  2  0
 12 13  1  0
M  END
>  <ID>  (1) 
conformer_0

$$$$
