
     RDKit          3D

 13 14  0  0  0  0  0  0  0  0999 V2000
  -19.1326   -7.1815    4.9124 C   0  0  0  0  0  0  0  0  0  0  0  0
  -18.3271   -6.4846    5.4754 C   0  0  0  0  0  0  0  0  0  0  0  0
  -16.9982   -6.2581    5.0054 C   0  0  0  0  0  0  0  0  0  0  0  0
  -20.4538   -7.5155    5.3384 C   0  0  0  0  0  0  0  0  0  0  0  0
  -20.8693   -6.7080    6.3516 O   0  0  0  0  0  0  0  0  0  0  0  0
  -16.7422   -6.8875    3.7463 C   0  0  0  0  0  0  0  0  0  0  0  0
  -21.2547   -8.3767    4.8079 O   0  0  0  0  0  0  0  0  0  0  0  0
  -15.9229   -5.3400    5.5945 C   0  0  0  0  0  0  0  0  0  0  0  0
  -18.8330   -7.9079    3.6857 C   0  0  0  0  0  0  0  0  0  0  0  0
  -15.4021   -6.5896    3.2908 C   0  0  0  0  0  0  0  0  0  0  0  0
  -14.9648   -5.1459    4.8832 C   0  0  0  0  0  0  0  0  0  0  0  0
  -17.5651   -7.7042    3.1718 N   0  0  0  0  0  0  0  0  0  0  0  0
  -14.5890   -5.9405    3.9971 C   0  0  0  0  0  0  0  0  0  0  0  0
  1  2  1  0
  2  3  2  0
  1  4  1  0
  4  5  1  0
  3  6  1  0
  4  7  2  0
  3  8  1  0
  1  9  2  0
  6 10  1  0
  8 11  2  0
  6 12  2  0
  9 12  1  0
 10 13  2  0
 11 13  1  0
M  END
>  <ID>  (1) 
conformer_0

$$$$
