
     RDKit          3D

 14 13  0  0  0  0  0  0  0  0999 V2000
  -14.5674   -6.8804    4.9649 N   0  0  0  0  0  0  0  0  0  0  0  0
  -15.4972   -6.0276    4.6600 C   0  0  0  0  0  0  0  0  0  0  0  0
  -16.8066   -6.3807    5.0889 C   0  0  0  0  0  0  0  0  0  0  0  0
  -15.2835   -4.7321    5.1953 C   0  0  0  0  0  0  0  0  0  0  0  0
  -13.2120   -6.6164    4.6157 C   0  0  0  0  0  0  0  0  0  0  0  0
  -17.7102   -6.7584    4.0535 C   0  0  0  0  0  0  0  0  0  0  0  0
  -17.4822   -6.6909    2.8856 O   0  0  0  0  0  0  0  0  0  0  0  0
  -19.0193   -7.0064    4.4567 N   0  0  0  0  0  0  0  0  0  0  0  0
  -20.0319   -7.5696    3.5390 C   0  0  0  0  0  0  0  0  0  0  0  0
  -12.4785   -6.1616    5.4734 O   0  0  0  0  0  0  0  0  0  0  0  0
  -21.0992   -6.7605    3.7066 C   0  0  0  0  0  0  0  0  0  0  0  0
  -21.8434   -6.6515    2.5580 O   0  0  0  0  0  0  0  0  0  0  0  0
  -12.6984   -6.9477    3.3913 N   0  0  0  0  0  0  0  0  0  0  0  0
  -21.4033   -6.0385    4.6553 O   0  0  0  0  0  0  0  0  0  0  0  0
  1  2  1  0
  2  3  1  0
  2  4  1  0
  1  5  1  0
  3  6  1  0
  6  7  2  0
  6  8  1  0
  8  9  1  0
  5 10  2  0
  9 11  1  0
 11 12  2  0
  5 13  1  0
 11 14  1  0
M  END
>  <ID>  (1) 
conformer_0

$$$$
