
     RDKit          3D

 13 13  0  0  0  0  0  0  0  0999 V2000
  -15.6532   -5.3759    5.0099 C   0  0  0  0  0  0  0  0  0  0  0  0
  -16.5896   -6.2857    4.9017 C   0  0  0  0  0  0  0  0  0  0  0  0
  -17.7990   -6.2021    5.6320 C   0  0  0  0  0  0  0  0  0  0  0  0
  -19.0068   -6.7715    5.1565 C   0  0  0  0  0  0  0  0  0  0  0  0
  -14.4667   -5.7490    4.7612 C   0  0  0  0  0  0  0  0  0  0  0  0
  -18.7633   -7.5829    3.9665 C   0  0  0  0  0  0  0  0  0  0  0  0
  -20.2378   -6.6402    5.7141 C   0  0  0  0  0  0  0  0  0  0  0  0
  -13.2217   -5.2797    5.1666 N   0  0  0  0  0  0  0  0  0  0  0  0
  -12.4042   -6.2343    5.6511 C   0  0  0  0  0  0  0  0  0  0  0  0
  -17.6453   -7.6671    3.3010 C   0  0  0  0  0  0  0  0  0  0  0  0
  -11.5210   -6.7767    4.6494 C   0  0  0  0  0  0  0  0  0  0  0  0
  -16.6022   -7.0071    3.7704 C   0  0  0  0  0  0  0  0  0  0  0  0
  -11.9651   -7.0088    3.4774 N   0  0  0  0  0  0  0  0  0  0  0  0
  1  2  1  0
  2  3  1  0
  3  4  1  0
  1  5  2  3
  4  6  2  0
  4  7  1  0
  5  8  1  0
  8  9  1  0
  6 10  1  0
  9 11  1  0
  2 12  2  0
 10 12  1  0
 11 13  1  0
M  END
>  <ID>  (1) 
conformer_0

$$$$
