
     RDKit          3D

 15 16  0  0  0  0  0  0  0  0999 V2000
  -15.0383   -5.2844    4.7826 C   0  0  0  0  0  0  0  0  0  0  0  0
  -16.2500   -5.2838    4.6747 C   0  0  0  0  0  0  0  0  0  0  0  0
  -17.1626   -4.5501    4.9973 C   0  0  0  0  0  0  0  0  0  0  0  0
  -16.7531   -6.6502    4.1557 C   0  0  0  0  0  0  0  0  0  0  0  0
  -18.5198   -4.6875    4.9144 C   0  0  0  0  0  0  0  0  0  0  0  0
  -19.5336   -3.6802    5.3077 C   0  0  0  0  0  0  0  0  0  0  0  0
  -14.2550   -6.5793    4.5217 C   0  0  0  0  0  0  0  0  0  0  0  0
  -12.9179   -6.8072    4.6368 N   0  0  0  0  0  0  0  0  0  0  0  0
  -19.0916   -5.9389    4.3597 C   0  0  0  0  0  0  0  0  0  0  0  0
  -20.2194   -3.8618    6.2005 O   0  0  0  0  0  0  0  0  0  0  0  0
  -12.3353   -6.8283    5.8157 O   0  0  0  0  0  0  0  0  0  0  0  0
  -15.2940   -7.5010    4.1751 N   0  0  0  0  0  0  0  0  0  0  0  0
  -17.9847   -6.9932    4.0847 C   0  0  0  0  0  0  0  0  0  0  0  0
  -19.7330   -2.6618    4.5165 O   0  0  0  0  0  0  0  0  0  0  0  0
  -12.1376   -7.0301    3.6148 C   0  0  0  0  0  0  0  0  0  0  0  0
  1  2  2  0
  2  3  1  0
  2  4  1  0
  3  5  2  0
  5  6  1  0
  1  7  1  0
  7  8  1  0
  5  9  1  0
  6 10  2  0
  8 11  1  0
  4 12  1  0
  7 12  2  0
  4 13  2  0
  9 13  2  0
  6 14  1  0
  8 15  1  0
M  END
>  <ID>  (1) 
conformer_0

$$$$
