
     RDKit          3D

 14 14  0  0  0  0  0  0  0  0999 V2000
  -17.7497   -5.9811    6.0296 C   0  0  0  0  0  0  0  0  0  0  0  0
  -18.9576   -6.2720    5.6584 C   0  0  0  0  0  0  0  0  0  0  0  0
  -19.0751   -7.1139    4.5519 C   0  0  0  0  0  0  0  0  0  0  0  0
  -16.5936   -6.1419    5.2441 C   0  0  0  0  0  0  0  0  0  0  0  0
  -20.3010   -7.7411    4.2397 C   0  0  0  0  0  0  0  0  0  0  0  0
  -18.0456   -7.4277    3.7493 C   0  0  0  0  0  0  0  0  0  0  0  0
  -15.2850   -5.7062    5.6002 C   0  0  0  0  0  0  0  0  0  0  0  0
  -21.3762   -7.6316    5.0205 O   0  0  0  0  0  0  0  0  0  0  0  0
  -14.2367   -6.7148    5.2414 N   0  0  0  0  0  0  0  0  0  0  0  0
  -12.8589   -6.1904    5.2248 C   0  0  0  0  0  0  0  0  0  0  0  0
  -16.7631   -6.9583    4.0796 C   0  0  0  0  0  0  0  0  0  0  0  0
  -20.4410   -8.5253    3.1901 O   0  0  0  0  0  0  0  0  0  0  0  0
  -12.5856   -5.2309    5.5990 O   0  0  0  0  0  0  0  0  0  0  0  0
  -11.9490   -7.0867    4.4960 N   0  0  0  0  0  0  0  0  0  0  0  0
  1  2  1  0
  2  3  2  0
  1  4  2  0
  3  5  1  0
  3  6  1  0
  4  7  1  0
  5  8  2  0
  7  9  1  0
  9 10  1  0
  4 11  1  0
  6 11  2  0
  5 12  1  0
 10 13  2  0
 10 14  1  0
M  END
>  <ID>  (1) 
conformer_0

$$$$
