
     RDKit          3D

 12 12  0  0  0  0  0  0  0  0999 V2000
  -14.5674   -6.8804    4.9649 C   0  0  0  0  0  0  0  0  0  0  0  0
  -15.5617   -6.0873    4.6525 C   0  0  0  0  0  0  0  0  0  0  0  0
  -16.8486   -6.4433    5.2117 C   0  0  0  0  0  0  0  0  0  0  0  0
  -17.6357   -5.4150    5.8315 C   0  0  0  0  0  0  0  0  0  0  0  0
  -13.1566   -6.3156    4.8020 C   0  0  0  0  0  0  0  0  0  0  0  0
  -17.8419   -6.8423    4.0837 C   0  0  0  0  0  0  0  0  0  0  0  0
  -19.0302   -6.5208    4.3203 N   0  0  0  0  0  0  0  0  0  0  0  0
  -20.1465   -6.8259    3.4639 C   0  0  0  0  0  0  0  0  0  0  0  0
  -17.6118   -7.7581    3.2721 O   0  0  0  0  0  0  0  0  0  0  0  0
  -19.0078   -5.3735    5.2495 C   0  0  0  0  0  0  0  0  0  0  0  0
  -12.6756   -5.9309    5.8619 O   0  0  0  0  0  0  0  0  0  0  0  0
  -12.6071   -6.3370    3.6495 N   0  0  0  0  0  0  0  0  0  0  0  0
  1  2  1  0
  2  3  1  0
  3  4  1  0
  1  5  1  0
  3  6  1  0
  6  7  1  0
  7  8  1  0
  6  9  2  0
  4 10  1  0
  7 10  1  0
  5 11  2  0
  5 12  1  0
M  END
>  <ID>  (1) 
conformer_0

$$$$
