
     RDKit          3D

 12 13  0  0  0  0  0  0  0  0999 V2000
  -15.0383   -5.2844    4.7826 C   0  0  0  0  0  0  0  0  0  0  0  0
  -14.2685   -6.3749    5.0284 C   0  0  0  0  0  0  0  0  0  0  0  0
  -16.3874   -5.4042    4.8021 C   0  0  0  0  0  0  0  0  0  0  0  0
  -14.7920   -7.4014    5.0797 N   0  0  0  0  0  0  0  0  0  0  0  0
  -17.4566   -4.7827    4.6122 C   0  0  0  0  0  0  0  0  0  0  0  0
  -12.7219   -6.3150    4.9297 C   0  0  0  0  0  0  0  0  0  0  0  0
  -16.2767   -7.0730    5.0408 C   0  0  0  0  0  0  0  0  0  0  0  0
  -12.0974   -6.8339    3.9241 N   0  0  0  0  0  0  0  0  0  0  0  0
  -17.6387   -7.6323    5.1194 C   0  0  0  0  0  0  0  0  0  0  0  0
  -12.2505   -6.1588    5.9932 O   0  0  0  0  0  0  0  0  0  0  0  0
  -18.6081   -6.9316    4.8928 C   0  0  0  0  0  0  0  0  0  0  0  0
  -18.7457   -5.5505    4.6196 C   0  0  0  0  0  0  0  0  0  0  0  0
  1  2  2  0
  1  3  1  0
  2  4  1  0
  3  5  1  0
  2  6  1  0
  3  7  2  0
  4  7  1  0
  6  8  1  0
  7  9  1  0
  6 10  2  0
  9 11  2  0
  5 12  2  0
 11 12  1  0
M  END
>  <ID>  (1) 
conformer_0

$$$$
