
     RDKit          3D

 15 16  0  0  0  0  0  0  0  0999 V2000
  -16.6245   -6.0990    5.5391 C   0  0  0  0  0  0  0  0  0  0  0  0
  -15.6817   -5.9682    4.8684 C   0  0  0  0  0  0  0  0  0  0  0  0
  -17.9038   -6.3565    5.1519 C   0  0  0  0  0  0  0  0  0  0  0  0
  -17.9911   -6.5127    3.7454 C   0  0  0  0  0  0  0  0  0  0  0  0
  -16.8792   -6.4195    2.9710 C   0  0  0  0  0  0  0  0  0  0  0  0
  -15.6805   -6.1368    3.5633 C   0  0  0  0  0  0  0  0  0  0  0  0
  -19.2241   -6.4826    6.0648 C   0  0  0  0  0  0  0  0  0  0  0  0
  -14.2271   -5.5567    5.4897 C   0  0  0  0  0  0  0  0  0  0  0  0
  -19.3473   -6.8853    3.1992 C   0  0  0  0  0  0  0  0  0  0  0  0
  -20.4468   -6.9367    3.9887 C   0  0  0  0  0  0  0  0  0  0  0  0
  -13.1285   -6.3618    4.9529 N   0  0  0  0  0  0  0  0  0  0  0  0
  -20.3095   -6.6008    5.4436 C   0  0  0  0  0  0  0  0  0  0  0  0
  -12.5139   -6.3548    4.0219 N   0  0  0  0  0  0  0  0  0  0  0  0
  -12.5883   -7.2071    5.9342 O   0  0  0  0  0  0  0  0  0  0  0  0
  -11.5143   -7.0736    3.8869 C   0  0  0  0  0  0  0  0  0  0  0  0
  1  2  1  0
  1  3  2  0
  3  4  1  0
  4  5  2  0
  2  6  2  0
  5  6  1  0
  3  7  1  0
  2  8  1  0
  4  9  1  0
  9 10  2  0
  8 11  1  0
  7 12  2  0
 10 12  1  0
 11 13  1  0
 11 14  1  0
 13 15  2  0
M  END
>  <ID>  (1) 
conformer_0

$$$$
