
     RDKit          3D

 15 15  0  0  0  0  0  0  0  0999 V2000
  -17.7497   -5.9811    6.0296 C   0  0  0  0  0  0  0  0  0  0  0  0
  -18.9576   -6.2720    5.6584 C   0  0  0  0  0  0  0  0  0  0  0  0
  -16.6726   -5.9496    5.1102 C   0  0  0  0  0  0  0  0  0  0  0  0
  -19.0174   -6.8487    4.2967 C   0  0  0  0  0  0  0  0  0  0  0  0
  -16.7971   -6.4321    3.8659 C   0  0  0  0  0  0  0  0  0  0  0  0
  -15.2468   -5.5375    5.3767 C   0  0  0  0  0  0  0  0  0  0  0  0
  -14.2496   -6.5097    5.2823 C   0  0  0  0  0  0  0  0  0  0  0  0
  -12.9514   -6.3325    5.6013 N   0  0  0  0  0  0  0  0  0  0  0  0
  -11.9084   -6.6050    4.6773 C   0  0  0  0  0  0  0  0  0  0  0  0
  -11.9561   -6.8872    3.6186 N   0  0  0  0  0  0  0  0  0  0  0  0
  -18.0310   -6.9198    3.4414 C   0  0  0  0  0  0  0  0  0  0  0  0
  -10.7085   -6.5797    5.2588 O   0  0  0  0  0  0  0  0  0  0  0  0
  -20.5773   -7.3990    3.9135 C   0  0  0  0  0  0  0  0  0  0  0  0
  -20.7148   -7.5230    2.7009 O   0  0  0  0  0  0  0  0  0  0  0  0
  -20.8242   -8.3902    4.7815 O   0  0  0  0  0  0  0  0  0  0  0  0
  1  2  2  0
  1  3  1  0
  2  4  1  0
  3  5  2  0
  3  6  1  0
  6  7  1  0
  7  8  1  0
  8  9  1  0
  9 10  1  0
  4 11  2  0
  5 11  1  0
  9 12  2  0
  4 13  1  0
 13 14  1  0
 13 15  2  0
M  END
>  <ID>  (1) 
conformer_0

$$$$
