
     RDKit          3D

 14 14  0  0  0  0  0  0  0  0999 V2000
  -17.7497   -5.9811    6.0296 C   0  0  0  0  0  0  0  0  0  0  0  0
  -18.9576   -6.2720    5.6584 C   0  0  0  0  0  0  0  0  0  0  0  0
  -20.0212   -6.1825    6.5450 O   0  0  0  0  0  0  0  0  0  0  0  0
  -16.6674   -6.1257    5.1132 C   0  0  0  0  0  0  0  0  0  0  0  0
  -19.2686   -6.7493    4.3576 C   0  0  0  0  0  0  0  0  0  0  0  0
  -15.2862   -5.8079    5.4669 C   0  0  0  0  0  0  0  0  0  0  0  0
  -14.3178   -6.2030    4.4757 N   0  0  0  0  0  0  0  0  0  0  0  0
  -20.5855   -7.1651    4.0237 O   0  0  0  0  0  0  0  0  0  0  0  0
  -18.1851   -6.9691    3.4808 C   0  0  0  0  0  0  0  0  0  0  0  0
  -16.9243   -6.5923    3.8425 C   0  0  0  0  0  0  0  0  0  0  0  0
  -12.9291   -5.9405    4.8213 C   0  0  0  0  0  0  0  0  0  0  0  0
  -12.6230   -5.5392    5.8409 O   0  0  0  0  0  0  0  0  0  0  0  0
  -12.0325   -6.4572    3.7761 N   0  0  0  0  0  0  0  0  0  0  0  0
  -21.1045   -6.6826    2.9988 C   0  0  0  0  0  0  0  0  0  0  0  0
  1  2  2  0
  2  3  1  0
  1  4  1  0
  2  5  1  0
  4  6  1  0
  6  7  1  0
  5  8  1  0
  5  9  2  0
  4 10  2  0
  9 10  1  0
  7 11  1  0
 11 12  2  0
 11 13  1  0
  8 14  1  0
M  END
>  <ID>  (1) 
conformer_0

$$$$
