
     RDKit          3D

 12 12  0  0  0  0  0  0  0  0999 V2000
  -14.5674   -6.8804    4.9649 C   0  0  0  0  0  0  0  0  0  0  0  0
  -15.5617   -6.0873    4.6525 C   0  0  0  0  0  0  0  0  0  0  0  0
  -16.8486   -6.4433    5.2117 C   0  0  0  0  0  0  0  0  0  0  0  0
  -18.0620   -5.9320    4.5090 C   0  0  0  0  0  0  0  0  0  0  0  0
  -19.0159   -6.9365    4.4822 C   0  0  0  0  0  0  0  0  0  0  0  0
  -19.0698   -7.8205    3.4118 C   0  0  0  0  0  0  0  0  0  0  0  0
  -13.1607   -6.2572    4.8492 C   0  0  0  0  0  0  0  0  0  0  0  0
  -20.0676   -7.2564    5.4469 C   0  0  0  0  0  0  0  0  0  0  0  0
  -12.6311   -6.0333    5.9661 O   0  0  0  0  0  0  0  0  0  0  0  0
  -20.2592   -8.7677    3.5095 C   0  0  0  0  0  0  0  0  0  0  0  0
  -20.9912   -8.4178    4.7218 C   0  0  0  0  0  0  0  0  0  0  0  0
  -12.2736   -7.0022    3.9151 N   0  0  0  0  0  0  0  0  0  0  0  0
  1  2  1  0
  2  3  1  0
  3  4  1  0
  4  5  1  0
  5  6  2  0
  1  7  1  0
  5  8  1  0
  7  9  1  0
  6 10  1  0
  8 11  1  0
 10 11  2  0
  7 12  1  0
M  END
>  <ID>  (1) 
conformer_0

$$$$
