
     RDKit          3D

 15 15  0  0  0  0  0  0  0  0999 V2000
  -19.1326   -7.1815    4.9124 C   0  0  0  0  0  0  0  0  0  0  0  0
  -18.3271   -6.4846    5.4754 C   0  0  0  0  0  0  0  0  0  0  0  0
  -16.9982   -6.2581    5.0054 C   0  0  0  0  0  0  0  0  0  0  0  0
  -20.4538   -7.5155    5.3384 C   0  0  0  0  0  0  0  0  0  0  0  0
  -20.8693   -6.7080    6.3516 O   0  0  0  0  0  0  0  0  0  0  0  0
  -16.7422   -6.8875    3.7463 C   0  0  0  0  0  0  0  0  0  0  0  0
  -21.2213   -8.3348    4.7700 O   0  0  0  0  0  0  0  0  0  0  0  0
  -15.9871   -5.3818    5.5629 C   0  0  0  0  0  0  0  0  0  0  0  0
  -18.6801   -7.9070    3.6771 C   0  0  0  0  0  0  0  0  0  0  0  0
  -14.6767   -5.9328    5.3552 C   0  0  0  0  0  0  0  0  0  0  0  0
  -13.6104   -5.4480    5.2259 O   0  0  0  0  0  0  0  0  0  0  0  0
  -17.5954   -7.6076    3.2120 C   0  0  0  0  0  0  0  0  0  0  0  0
  -12.4770   -6.2248    5.0108 C   0  0  0  0  0  0  0  0  0  0  0  0
  -11.9021   -6.6175    5.9597 O   0  0  0  0  0  0  0  0  0  0  0  0
  -12.0954   -6.4204    3.6348 N   0  0  0  0  0  0  0  0  0  0  0  0
  1  2  1  0
  2  3  2  0
  1  4  1  0
  4  5  1  0
  3  6  1  0
  4  7  2  0
  3  8  1  0
  1  9  2  0
  8 10  1  0
 10 11  1  0
  6 12  2  0
  9 12  1  0
 11 13  1  0
 13 14  2  0
 13 15  1  0
M  END
>  <ID>  (1) 
conformer_0

$$$$
