
     RDKit          3D

 14 15  0  0  0  0  0  0  0  0999 V2000
  -15.2119   -5.1649    4.8701 C   0  0  0  0  0  0  0  0  0  0  0  0
  -14.4174   -6.2671    4.9405 C   0  0  0  0  0  0  0  0  0  0  0  0
  -13.0107   -6.3019    5.0458 N   0  0  0  0  0  0  0  0  0  0  0  0
  -12.2407   -6.8145    4.2166 C   0  0  0  0  0  0  0  0  0  0  0  0
  -16.5993   -5.3170    4.6977 C   0  0  0  0  0  0  0  0  0  0  0  0
  -15.1907   -7.5604    5.1964 C   0  0  0  0  0  0  0  0  0  0  0  0
  -17.4439   -4.2169    4.4393 C   0  0  0  0  0  0  0  0  0  0  0  0
  -17.2338   -6.5345    4.8308 C   0  0  0  0  0  0  0  0  0  0  0  0
  -10.8775   -6.8296    4.5781 O   0  0  0  0  0  0  0  0  0  0  0  0
  -12.5781   -7.3045    3.1244 N   0  0  0  0  0  0  0  0  0  0  0  0
  -18.7967   -4.4329    4.4495 C   0  0  0  0  0  0  0  0  0  0  0  0
  -18.6963   -6.5476    4.7382 C   0  0  0  0  0  0  0  0  0  0  0  0
  -19.3277   -5.5910    4.5118 C   0  0  0  0  0  0  0  0  0  0  0  0
  -16.5280   -7.5392    5.0171 C   0  0  0  0  0  0  0  0  0  0  0  0
  1  2  1  0
  2  3  1  0
  3  4  1  0
  1  5  2  0
  2  6  2  0
  5  7  1  0
  5  8  1  0
  4  9  2  0
  4 10  1  0
  7 11  2  0
  8 12  1  0
 11 13  1  0
 12 13  2  0
  6 14  1  0
  8 14  2  0
M  END
>  <ID>  (1) 
conformer_0

$$$$
