
     RDKit          3D

 14 14  0  0  0  0  0  0  0  0999 V2000
  -15.2119   -5.1649    4.8701 C   0  0  0  0  0  0  0  0  0  0  0  0
  -16.4299   -5.1988    4.6543 C   0  0  0  0  0  0  0  0  0  0  0  0
  -14.3199   -6.3474    4.8122 C   0  0  0  0  0  0  0  0  0  0  0  0
  -17.0662   -6.5076    4.4161 C   0  0  0  0  0  0  0  0  0  0  0  0
  -18.5366   -6.6304    4.2198 C   0  0  0  0  0  0  0  0  0  0  0  0
  -14.9279   -7.5674    4.7304 N   0  0  0  0  0  0  0  0  0  0  0  0
  -16.2885   -7.6060    4.4993 C   0  0  0  0  0  0  0  0  0  0  0  0
  -19.0100   -6.6182    3.1889 O   0  0  0  0  0  0  0  0  0  0  0  0
  -12.9227   -6.3506    4.9685 N   0  0  0  0  0  0  0  0  0  0  0  0
  -12.4461   -5.8799    6.0127 O   0  0  0  0  0  0  0  0  0  0  0  0
  -19.3738   -6.5917    5.3025 N   0  0  0  0  0  0  0  0  0  0  0  0
  -12.1391   -7.0750    4.1013 C   0  0  0  0  0  0  0  0  0  0  0  0
  -18.8106   -6.4891    6.6631 C   0  0  0  0  0  0  0  0  0  0  0  0
  -20.6948   -6.9575    5.1833 C   0  0  0  0  0  0  0  0  0  0  0  0
  1  2  2  0
  1  3  1  0
  2  4  1  0
  4  5  1  0
  3  6  2  0
  4  7  2  0
  6  7  1  0
  5  8  2  0
  3  9  1  0
  9 10  1  0
  5 11  1  0
  9 12  1  0
 11 13  1  0
 11 14  1  0
M  END
>  <ID>  (1) 
conformer_0

$$$$
