
     RDKit          3D

 16 16  0  0  0  0  0  0  0  0999 V2000
  -15.2119   -5.1649    4.8701 C   0  0  0  0  0  0  0  0  0  0  0  0
  -14.4174   -6.2671    4.9405 C   0  0  0  0  0  0  0  0  0  0  0  0
  -13.0107   -6.3019    5.0458 N   0  0  0  0  0  0  0  0  0  0  0  0
  -16.6591   -5.3682    4.8559 C   0  0  0  0  0  0  0  0  0  0  0  0
  -17.2562   -5.6154    3.7695 C   0  0  0  0  0  0  0  0  0  0  0  0
  -14.7502   -7.3653    4.6262 O   0  0  0  0  0  0  0  0  0  0  0  0
  -17.3470   -5.7117    6.0364 C   0  0  0  0  0  0  0  0  0  0  0  0
  -18.6952   -6.0319    6.0215 C   0  0  0  0  0  0  0  0  0  0  0  0
  -12.4568   -5.2076    5.4037 O   0  0  0  0  0  0  0  0  0  0  0  0
  -19.3626   -6.3170    7.2296 F   0  0  0  0  0  0  0  0  0  0  0  0
  -18.5992   -5.9695    3.6552 C   0  0  0  0  0  0  0  0  0  0  0  0
  -19.3114   -6.2366    4.8189 C   0  0  0  0  0  0  0  0  0  0  0  0
  -19.2889   -6.1642    2.2014 C   0  0  0  0  0  0  0  0  0  0  0  0
  -20.1623   -5.3460    1.9475 O   0  0  0  0  0  0  0  0  0  0  0  0
  -12.2584   -7.3055    4.4952 O   0  0  0  0  0  0  0  0  0  0  0  0
  -18.8273   -7.0659    1.4381 O   0  0  0  0  0  0  0  0  0  0  0  0
  1  2  1  0
  2  3  1  0
  1  4  1  0
  4  5  2  0
  2  6  2  0
  4  7  1  0
  7  8  2  0
  3  9  1  0
  8 10  1  0
  5 11  1  0
  8 12  1  0
 11 12  2  0
 11 13  1  0
 13 14  2  0
  3 15  1  0
 13 16  1  0
M  END
>  <ID>  (1) 
conformer_0

$$$$
