
     RDKit          3D

  4  3  0  0  0  0  0  0  0  0999 V2000
  -11.6533   -7.0885    4.9987 O   0  0  0  0  0  0  0  0  0  0  0  0
  -12.5803   -6.3759    4.8611 C   0  0  0  0  0  0  0  0  0  0  0  0
  -13.1725   -6.4247    3.6496 O   0  0  0  0  0  0  0  0  0  0  0  0
  -13.1364   -5.3793    5.7243 O   0  0  0  0  0  0  0  0  0  0  0  0
  1  2  2  0
  2  3  1  0
  2  4  1  0
M  END
>  <ID>  (1) 
conformer_0

$$$$
