
     RDKit          3D

 11 11  0  0  0  0  0  0  0  0999 V2000
  -17.7497   -5.9811    6.0296 C   0  0  0  0  0  0  0  0  0  0  0  0
  -18.9576   -6.2720    5.6584 C   0  0  0  0  0  0  0  0  0  0  0  0
  -20.0212   -6.1825    6.5450 O   0  0  0  0  0  0  0  0  0  0  0  0
  -16.6674   -6.1257    5.1132 C   0  0  0  0  0  0  0  0  0  0  0  0
  -19.2686   -6.7493    4.3576 C   0  0  0  0  0  0  0  0  0  0  0  0
  -15.2862   -5.8079    5.4669 C   0  0  0  0  0  0  0  0  0  0  0  0
  -14.5266   -5.2285    4.4869 O   0  0  0  0  0  0  0  0  0  0  0  0
  -20.5589   -7.1809    4.0118 O   0  0  0  0  0  0  0  0  0  0  0  0
  -16.9692   -6.6136    3.9312 C   0  0  0  0  0  0  0  0  0  0  0  0
  -18.1844   -6.9786    3.4883 C   0  0  0  0  0  0  0  0  0  0  0  0
  -20.8001   -8.4661    3.5612 C   0  0  0  0  0  0  0  0  0  0  0  0
  1  2  2  0
  2  3  1  0
  1  4  1  0
  2  5  1  0
  4  6  1  0
  6  7  1  0
  5  8  1  0
  4  9  2  0
  5 10  2  0
  9 10  1  0
  8 11  1  0
M  END
>  <ID>  (1) 
conformer_0

$$$$
