
     RDKit          3D

 15 16  0  0  0  0  0  0  0  0999 V2000
  -15.2119   -5.1649    4.8701 C   0  0  0  0  0  0  0  0  0  0  0  0
  -16.4299   -5.1988    4.6543 C   0  0  0  0  0  0  0  0  0  0  0  0
  -14.3613   -6.3460    4.6478 C   0  0  0  0  0  0  0  0  0  0  0  0
  -12.9583   -6.4335    4.8252 N   0  0  0  0  0  0  0  0  0  0  0  0
  -14.9591   -7.6018    4.6777 N   0  0  0  0  0  0  0  0  0  0  0  0
  -16.3748   -7.5809    4.4840 C   0  0  0  0  0  0  0  0  0  0  0  0
  -17.2871   -4.0970    4.7849 C   0  0  0  0  0  0  0  0  0  0  0  0
  -18.6905   -4.3594    4.6261 C   0  0  0  0  0  0  0  0  0  0  0  0
  -12.2022   -6.7897    3.8684 O   0  0  0  0  0  0  0  0  0  0  0  0
  -17.1386   -6.4364    4.5215 C   0  0  0  0  0  0  0  0  0  0  0  0
  -18.5119   -6.6442    4.3675 C   0  0  0  0  0  0  0  0  0  0  0  0
  -19.6075   -3.0938    4.5770 O   0  0  0  0  0  0  0  0  0  0  0  0
  -19.1050   -7.9557    4.1846 O   0  0  0  0  0  0  0  0  0  0  0  0
  -19.4480   -5.5999    4.3712 C   0  0  0  0  0  0  0  0  0  0  0  0
  -20.3768   -2.9237    3.5186 C   0  0  0  0  0  0  0  0  0  0  0  0
  1  2  1  0
  1  3  2  0
  3  4  1  0
  3  5  1  0
  5  6  2  0
  2  7  1  0
  7  8  2  0
  4  9  1  0
  2 10  2  0
  6 10  1  0
 10 11  1  0
  8 12  1  0
 11 13  1  0
  8 14  1  0
 11 14  2  0
 12 15  1  0
M  END
>  <ID>  (1) 
conformer_0

$$$$
