
     RDKit          3D

 13 14  0  0  0  0  0  0  0  0999 V2000
  -19.1326   -7.1815    4.9124 C   0  0  0  0  0  0  0  0  0  0  0  0
  -18.3271   -6.4846    5.4754 C   0  0  0  0  0  0  0  0  0  0  0  0
  -16.9982   -6.2581    5.0054 C   0  0  0  0  0  0  0  0  0  0  0  0
  -20.4538   -7.5155    5.3384 C   0  0  0  0  0  0  0  0  0  0  0  0
  -20.8693   -6.7080    6.3516 O   0  0  0  0  0  0  0  0  0  0  0  0
  -16.7422   -6.8875    3.7463 C   0  0  0  0  0  0  0  0  0  0  0  0
  -16.0356   -5.3677    5.6186 C   0  0  0  0  0  0  0  0  0  0  0  0
  -15.4198   -6.6493    3.2631 C   0  0  0  0  0  0  0  0  0  0  0  0
  -21.2019   -8.4144    4.8484 O   0  0  0  0  0  0  0  0  0  0  0  0
  -14.7111   -5.9801    4.1694 N   0  0  0  0  0  0  0  0  0  0  0  0
  -18.7308   -7.7653    3.6425 C   0  0  0  0  0  0  0  0  0  0  0  0
  -17.5760   -7.5905    3.1410 C   0  0  0  0  0  0  0  0  0  0  0  0
  -14.8387   -5.3560    5.1914 C   0  0  0  0  0  0  0  0  0  0  0  0
  1  2  1  0
  2  3  2  0
  1  4  1  0
  4  5  1  0
  3  6  1  0
  3  7  1  0
  6  8  1  0
  4  9  2  0
  8 10  2  0
  1 11  2  0
  6 12  2  0
 11 12  1  0
  7 13  2  0
 10 13  1  0
M  END
>  <ID>  (1) 
conformer_0

$$$$
