
     RDKit          3D

 14 14  0  0  0  0  0  0  0  0999 V2000
  -17.7497   -5.9811    6.0296 C   0  0  0  0  0  0  0  0  0  0  0  0
  -16.6616   -5.8679    5.4148 C   0  0  0  0  0  0  0  0  0  0  0  0
  -16.4504   -6.2326    4.2104 C   0  0  0  0  0  0  0  0  0  0  0  0
  -17.3486   -6.7099    3.6143 C   0  0  0  0  0  0  0  0  0  0  0  0
  -15.0083   -6.1529    3.6289 C   0  0  0  0  0  0  0  0  0  0  0  0
  -13.9998   -6.6657    4.2414 N   0  0  0  0  0  0  0  0  0  0  0  0
  -17.2857   -7.1806    2.2088 F   0  0  0  0  0  0  0  0  0  0  0  0
  -18.6443   -6.9655    4.1065 C   0  0  0  0  0  0  0  0  0  0  0  0
  -19.7450   -7.5778    3.3592 O   0  0  0  0  0  0  0  0  0  0  0  0
  -18.8567   -6.5797    5.4011 C   0  0  0  0  0  0  0  0  0  0  0  0
  -12.6750   -6.3286    4.2008 C   0  0  0  0  0  0  0  0  0  0  0  0
  -12.2813   -5.6858    3.3060 O   0  0  0  0  0  0  0  0  0  0  0  0
  -11.8222   -6.7976    5.1635 N   0  0  0  0  0  0  0  0  0  0  0  0
  -20.8004   -6.9600    3.2795 C   0  0  0  0  0  0  0  0  0  0  0  0
  1  2  2  0
  2  3  1  0
  3  4  2  0
  3  5  1  0
  5  6  1  0
  4  7  1  0
  4  8  1  0
  8  9  1  0
  1 10  1  0
  8 10  2  0
  6 11  1  0
 11 12  2  0
 11 13  1  0
  9 14  1  0
M  END
>  <ID>  (1) 
conformer_0

$$$$
