
     RDKit          3D

 16 18  0  0  0  0  0  0  0  0999 V2000
  -19.0437   -7.7258    4.1005 C   0  0  0  0  0  0  0  0  0  0  0  0
  -18.2534   -6.7675    4.2728 C   0  0  0  0  0  0  0  0  0  0  0  0
  -20.2526   -7.8347    4.0251 C   0  0  0  0  0  0  0  0  0  0  0  0
  -16.7615   -6.8746    4.2640 C   0  0  0  0  0  0  0  0  0  0  0  0
  -18.8783   -5.5814    4.5181 C   0  0  0  0  0  0  0  0  0  0  0  0
  -18.1005   -4.2942    4.7212 C   0  0  0  0  0  0  0  0  0  0  0  0
  -16.0233   -5.9924    4.6714 C   0  0  0  0  0  0  0  0  0  0  0  0
  -14.5872   -6.0375    4.7180 C   0  0  0  0  0  0  0  0  0  0  0  0
  -16.6711   -4.5386    4.7645 C   0  0  0  0  0  0  0  0  0  0  0  0
  -13.9289   -5.6103    5.7740 N   0  0  0  0  0  0  0  0  0  0  0  0
  -20.9657   -6.6046    4.2332 C   0  0  0  0  0  0  0  0  0  0  0  0
  -12.6131   -5.9370    5.6451 N   0  0  0  0  0  0  0  0  0  0  0  0
  -20.2148   -5.4179    4.4704 C   0  0  0  0  0  0  0  0  0  0  0  0
  -12.2501   -6.6172    4.6467 C   0  0  0  0  0  0  0  0  0  0  0  0
  -13.5602   -6.7739    3.9045 C   0  0  0  0  0  0  0  0  0  0  0  0
  -11.1034   -7.1252    4.2491 N   0  0  0  0  0  0  0  0  0  0  0  0
  1  2  2  0
  1  3  1  0
  2  4  1  0
  2  5  1  0
  5  6  1  0
  4  7  2  0
  7  8  1  0
  6  9  2  0
  7  9  1  0
  8 10  2  0
  3 11  2  0
 10 12  1  0
  5 13  2  0
 11 13  1  0
 12 14  1  0
  8 15  1  0
 14 15  2  0
 14 16  1  0
M  END
>  <ID>  (1) 
conformer_0

$$$$
