
     RDKit          3D

 15 15  0  0  0  0  0  0  0  0999 V2000
  -17.7497   -5.9811    6.0296 C   0  0  0  0  0  0  0  0  0  0  0  0
  -18.9576   -6.2720    5.6584 C   0  0  0  0  0  0  0  0  0  0  0  0
  -19.0751   -7.1139    4.5519 C   0  0  0  0  0  0  0  0  0  0  0  0
  -16.5936   -6.1419    5.2441 C   0  0  0  0  0  0  0  0  0  0  0  0
  -20.3010   -7.7411    4.2397 C   0  0  0  0  0  0  0  0  0  0  0  0
  -18.0456   -7.4277    3.7493 C   0  0  0  0  0  0  0  0  0  0  0  0
  -15.2850   -5.7062    5.6002 C   0  0  0  0  0  0  0  0  0  0  0  0
  -14.4963   -5.3015    4.5366 O   0  0  0  0  0  0  0  0  0  0  0  0
  -13.2932   -6.1137    4.5494 C   0  0  0  0  0  0  0  0  0  0  0  0
  -12.8613   -6.5639    3.4959 N   0  0  0  0  0  0  0  0  0  0  0  0
  -12.8588   -6.3780    5.6931 O   0  0  0  0  0  0  0  0  0  0  0  0
  -16.8809   -6.8081    4.0414 C   0  0  0  0  0  0  0  0  0  0  0  0
  -21.3257   -7.5425    4.7687 O   0  0  0  0  0  0  0  0  0  0  0  0
  -20.3104   -8.6811    3.2163 O   0  0  0  0  0  0  0  0  0  0  0  0
  -11.6906   -7.0397    3.4331 O   0  0  0  0  0  0  0  0  0  0  0  0
  1  2  1  0
  2  3  2  0
  1  4  2  0
  3  5  1  0
  3  6  1  0
  4  7  1  0
  7  8  1  0
  8  9  1  0
  9 10  1  0
  9 11  2  0
  4 12  1  0
  6 12  2  0
  5 13  2  0
  5 14  1  0
 10 15  1  0
M  END
>  <ID>  (1) 
conformer_0

$$$$
