
     RDKit          3D

 14 15  0  0  0  0  0  0  0  0999 V2000
  -16.6245   -6.0990    5.5391 C   0  0  0  0  0  0  0  0  0  0  0  0
  -15.6817   -5.9682    4.8684 C   0  0  0  0  0  0  0  0  0  0  0  0
  -15.7242   -6.3347    3.6244 N   0  0  0  0  0  0  0  0  0  0  0  0
  -17.8498   -6.4704    5.1497 C   0  0  0  0  0  0  0  0  0  0  0  0
  -17.9155   -6.8861    3.8687 C   0  0  0  0  0  0  0  0  0  0  0  0
  -14.2422   -5.5010    5.4273 C   0  0  0  0  0  0  0  0  0  0  0  0
  -19.1256   -6.3929    5.9528 C   0  0  0  0  0  0  0  0  0  0  0  0
  -19.2005   -7.4028    3.2993 C   0  0  0  0  0  0  0  0  0  0  0  0
  -13.1652   -6.5161    5.4442 C   0  0  0  0  0  0  0  0  0  0  0  0
  -20.2719   -6.8932    5.4045 C   0  0  0  0  0  0  0  0  0  0  0  0
  -20.3380   -7.3777    4.1422 C   0  0  0  0  0  0  0  0  0  0  0  0
  -16.8106   -6.7927    3.0247 C   0  0  0  0  0  0  0  0  0  0  0  0
  -12.2396   -6.4176    4.4541 N   0  0  0  0  0  0  0  0  0  0  0  0
  -11.3160   -7.2918    4.3911 O   0  0  0  0  0  0  0  0  0  0  0  0
  1  2  2  0
  2  3  1  0
  1  4  1  0
  4  5  2  0
  2  6  1  0
  4  7  1  0
  5  8  1  0
  6  9  1  0
  7 10  2  0
  8 11  2  0
 10 11  1  0
  3 12  2  0
  5 12  1  0
  9 13  1  0
 13 14  1  0
M  END
>  <ID>  (1) 
conformer_0

$$$$
