
     RDKit          3D

 13 14  0  0  0  0  0  0  0  0999 V2000
  -16.2182   -5.8168    4.2289 C   0  0  0  0  0  0  0  0  0  0  0  0
  -17.2814   -6.3368    4.4991 C   0  0  0  0  0  0  0  0  0  0  0  0
  -18.0708   -5.9324    5.6342 C   0  0  0  0  0  0  0  0  0  0  0  0
  -17.4026   -5.0840    6.5451 C   0  0  0  0  0  0  0  0  0  0  0  0
  -16.1478   -4.5521    6.0938 C   0  0  0  0  0  0  0  0  0  0  0  0
  -15.5323   -5.0599    4.9253 C   0  0  0  0  0  0  0  0  0  0  0  0
  -18.1747   -7.2794    3.7024 N   0  0  0  0  0  0  0  0  0  0  0  0
  -19.3147   -6.4510    5.9950 C   0  0  0  0  0  0  0  0  0  0  0  0
  -19.9609   -7.2883    5.1472 C   0  0  0  0  0  0  0  0  0  0  0  0
  -21.2376   -7.8480    5.4058 C   0  0  0  0  0  0  0  0  0  0  0  0
  -19.2937   -7.6160    3.9266 C   0  0  0  0  0  0  0  0  0  0  0  0
  -21.9284   -7.4702    6.4710 O   0  0  0  0  0  0  0  0  0  0  0  0
  -21.7888   -8.7432    4.6111 N   0  0  0  0  0  0  0  0  0  0  0  0
  1  2  1  0
  2  3  2  0
  3  4  1  0
  4  5  2  0
  1  6  2  0
  5  6  1  0
  2  7  1  0
  3  8  1  0
  8  9  2  0
  9 10  1  0
  7 11  2  0
  9 11  1  0
 10 12  2  0
 10 13  1  0
M  END
>  <ID>  (1) 
conformer_0

$$$$
