
     RDKit          3D

 11 11  0  0  0  0  0  0  0  0999 V2000
  -15.0958   -6.9042    5.2877 C   0  0  0  0  0  0  0  0  0  0  0  0
  -16.1530   -6.2469    4.7379 C   0  0  0  0  0  0  0  0  0  0  0  0
  -13.8211   -6.1897    5.1980 C   0  0  0  0  0  0  0  0  0  0  0  0
  -16.6022   -5.1848    5.1503 O   0  0  0  0  0  0  0  0  0  0  0  0
  -17.8026   -4.7614    4.7495 C   0  0  0  0  0  0  0  0  0  0  0  0
  -12.9812   -6.6618    4.2222 N   0  0  0  0  0  0  0  0  0  0  0  0
  -18.5526   -5.8770    4.3528 C   0  0  0  0  0  0  0  0  0  0  0  0
  -11.5616   -6.4698    4.2934 C   0  0  0  0  0  0  0  0  0  0  0  0
  -19.8342   -6.0540    4.1841 O   0  0  0  0  0  0  0  0  0  0  0  0
  -17.6199   -6.9657    4.7451 N   0  0  0  0  0  0  0  0  0  0  0  0
  -10.7729   -7.3414    3.6859 O   0  0  0  0  0  0  0  0  0  0  0  0
  1  2  1  0
  1  3  1  0
  2  4  1  0
  4  5  1  0
  3  6  1  0
  5  7  1  0
  6  8  1  0
  7  9  2  0
  2 10  1  0
  7 10  1  0
  8 11  2  0
M  END
>  <ID>  (1) 
conformer_0

$$$$
