
     RDKit          3D

 13 13  0  0  0  0  0  0  0  0999 V2000
  -16.9762   -5.7257    5.4411 C   0  0  0  0  0  0  0  0  0  0  0  0
  -15.9507   -5.7769    4.8457 C   0  0  0  0  0  0  0  0  0  0  0  0
  -14.6637   -5.8075    5.2647 C   0  0  0  0  0  0  0  0  0  0  0  0
  -18.2590   -5.9969    4.9056 C   0  0  0  0  0  0  0  0  0  0  0  0
  -19.4702   -5.9846    5.6238 C   0  0  0  0  0  0  0  0  0  0  0  0
  -18.3363   -6.1596    3.5213 C   0  0  0  0  0  0  0  0  0  0  0  0
  -15.9548   -6.1760    3.4719 C   0  0  0  0  0  0  0  0  0  0  0  0
  -13.7540   -6.7706    5.3691 N   0  0  0  0  0  0  0  0  0  0  0  0
  -20.3624   -6.9269    5.5851 O   0  0  0  0  0  0  0  0  0  0  0  0
  -12.4351   -6.5779    5.4743 C   0  0  0  0  0  0  0  0  0  0  0  0
  -19.5175   -5.3321    6.7874 O   0  0  0  0  0  0  0  0  0  0  0  0
  -11.5860   -6.5637    4.4235 N   0  0  0  0  0  0  0  0  0  0  0  0
  -17.2051   -6.2965    2.8398 C   0  0  0  0  0  0  0  0  0  0  0  0
  1  2  1  0
  2  3  1  0
  1  4  2  0
  4  5  1  0
  4  6  1  0
  2  7  2  0
  3  8  1  0
  5  9  2  0
  8 10  1  0
  5 11  1  0
 10 12  1  0
  6 13  2  0
  7 13  1  0
M  END
>  <ID>  (1) 
conformer_0

$$$$
