
     RDKit          3D

 16 17  0  0  0  0  0  0  0  0999 V2000
  -15.2119   -5.1649    4.8701 C   0  0  0  0  0  0  0  0  0  0  0  0
  -16.4299   -5.1988    4.6543 C   0  0  0  0  0  0  0  0  0  0  0  0
  -16.9227   -6.3072    4.0093 C   0  0  0  0  0  0  0  0  0  0  0  0
  -16.1658   -7.4423    3.9533 C   0  0  0  0  0  0  0  0  0  0  0  0
  -18.4120   -6.3599    3.6736 C   0  0  0  0  0  0  0  0  0  0  0  0
  -14.2922   -6.2821    4.7832 C   0  0  0  0  0  0  0  0  0  0  0  0
  -19.3497   -5.9517    4.3899 N   0  0  0  0  0  0  0  0  0  0  0  0
  -20.5427   -5.7516    3.8443 C   0  0  0  0  0  0  0  0  0  0  0  0
  -21.5807   -5.1823    4.3493 O   0  0  0  0  0  0  0  0  0  0  0  0
  -19.1513   -5.4104    5.7619 C   0  0  0  0  0  0  0  0  0  0  0  0
  -14.8374   -7.2833    4.4225 C   0  0  0  0  0  0  0  0  0  0  0  0
  -19.0276   -6.8986    2.5558 C   0  0  0  0  0  0  0  0  0  0  0  0
  -20.3134   -6.4146    2.6011 N   0  0  0  0  0  0  0  0  0  0  0  0
  -21.2652   -6.5864    1.5893 C   0  0  0  0  0  0  0  0  0  0  0  0
  -13.0174   -6.1398    5.1499 N   0  0  0  0  0  0  0  0  0  0  0  0
  -12.0541   -6.7523    4.5127 O   0  0  0  0  0  0  0  0  0  0  0  0
  1  2  2  0
  2  3  1  0
  3  4  2  0
  3  5  1  0
  1  6  1  0
  5  7  1  0
  7  8  1  0
  8  9  2  0
  7 10  1  0
  4 11  1  0
  6 11  2  0
  5 12  2  0
  8 13  1  0
 12 13  1  0
 13 14  1  0
  6 15  1  0
 15 16  1  0
M  END
>  <ID>  (1) 
conformer_0

$$$$
