
     RDKit          3D

 15 16  0  0  0  0  0  0  0  0999 V2000
  -16.6245   -6.0990    5.5391 C   0  0  0  0  0  0  0  0  0  0  0  0
  -15.6817   -5.9682    4.8684 C   0  0  0  0  0  0  0  0  0  0  0  0
  -17.9038   -6.3565    5.1519 C   0  0  0  0  0  0  0  0  0  0  0  0
  -17.9911   -6.5127    3.7454 C   0  0  0  0  0  0  0  0  0  0  0  0
  -19.0300   -6.5662    5.9969 C   0  0  0  0  0  0  0  0  0  0  0  0
  -14.2861   -5.6558    5.4036 N   0  0  0  0  0  0  0  0  0  0  0  0
  -16.9211   -6.3208    2.9567 C   0  0  0  0  0  0  0  0  0  0  0  0
  -15.6593   -6.0408    3.5140 N   0  0  0  0  0  0  0  0  0  0  0  0
  -19.3566   -6.8250    3.1749 C   0  0  0  0  0  0  0  0  0  0  0  0
  -20.2882   -6.7829    5.4140 C   0  0  0  0  0  0  0  0  0  0  0  0
  -21.4389   -6.9781    6.2442 O   0  0  0  0  0  0  0  0  0  0  0  0
  -13.1147   -6.2505    4.9097 C   0  0  0  0  0  0  0  0  0  0  0  0
  -13.1236   -6.9332    3.8722 O   0  0  0  0  0  0  0  0  0  0  0  0
  -11.8970   -5.8278    5.4243 N   0  0  0  0  0  0  0  0  0  0  0  0
  -20.5669   -6.9823    4.0368 C   0  0  0  0  0  0  0  0  0  0  0  0
  1  2  1  0
  1  3  2  0
  3  4  1  0
  3  5  1  0
  2  6  1  0
  4  7  2  0
  2  8  2  0
  7  8  1  0
  4  9  1  0
  5 10  2  0
 10 11  1  0
  6 12  1  0
 12 13  2  0
 12 14  1  0
  9 15  2  0
 10 15  1  0
M  END
>  <ID>  (1) 
conformer_0

$$$$
