
     RDKit          3D

 16 17  0  0  0  0  0  0  0  0999 V2000
  -14.5865   -6.9887    4.9376 N   0  0  0  0  0  0  0  0  0  0  0  0
  -15.4125   -5.9865    4.6724 C   0  0  0  0  0  0  0  0  0  0  0  0
  -16.7691   -6.1820    5.0518 C   0  0  0  0  0  0  0  0  0  0  0  0
  -17.6018   -6.6222    3.9968 C   0  0  0  0  0  0  0  0  0  0  0  0
  -19.0133   -7.0011    4.2982 C   0  0  0  0  0  0  0  0  0  0  0  0
  -15.1037   -4.8161    4.3616 O   0  0  0  0  0  0  0  0  0  0  0  0
  -19.5247   -6.5615    5.4206 C   0  0  0  0  0  0  0  0  0  0  0  0
  -13.2339   -6.7182    4.9220 C   0  0  0  0  0  0  0  0  0  0  0  0
  -19.6628   -7.9343    3.5121 C   0  0  0  0  0  0  0  0  0  0  0  0
  -18.8957   -5.6257    6.2867 C   0  0  0  0  0  0  0  0  0  0  0  0
  -20.9638   -8.3002    3.9470 C   0  0  0  0  0  0  0  0  0  0  0  0
  -12.7097   -6.2973    6.0392 O   0  0  0  0  0  0  0  0  0  0  0  0
  -12.4217   -7.0026    3.7772 N   0  0  0  0  0  0  0  0  0  0  0  0
  -21.5150   -7.8235    5.1018 C   0  0  0  0  0  0  0  0  0  0  0  0
  -17.4874   -5.3208    6.0713 C   0  0  0  0  0  0  0  0  0  0  0  0
  -20.8048   -6.9222    5.8602 C   0  0  0  0  0  0  0  0  0  0  0  0
  1  2  1  0
  2  3  1  0
  3  4  1  0
  4  5  1  0
  2  6  2  0
  5  7  1  0
  1  8  1  0
  5  9  2  0
  7 10  1  0
  9 11  1  0
  8 12  2  0
  8 13  1  0
 11 14  2  0
  3 15  1  0
 10 15  2  0
  7 16  2  0
 14 16  1  0
M  END
>  <ID>  (1) 
conformer_0

$$$$
