
     RDKit          3D

 11 11  0  0  0  0  0  0  0  0999 V2000
  -16.6245   -6.0990    5.5391 C   0  0  0  0  0  0  0  0  0  0  0  0
  -17.8056   -6.2953    5.7185 C   0  0  0  0  0  0  0  0  0  0  0  0
  -15.8835   -6.4866    4.5147 C   0  0  0  0  0  0  0  0  0  0  0  0
  -16.9143   -7.0412    3.6217 C   0  0  0  0  0  0  0  0  0  0  0  0
  -18.6841   -5.9616    6.6974 C   0  0  0  0  0  0  0  0  0  0  0  0
  -18.1453   -6.8994    4.4414 C   0  0  0  0  0  0  0  0  0  0  0  0
  -14.4454   -6.3553    4.2636 C   0  0  0  0  0  0  0  0  0  0  0  0
  -13.9051   -6.5796    3.2383 O   0  0  0  0  0  0  0  0  0  0  0  0
  -13.7540   -6.3103    5.5052 N   0  0  0  0  0  0  0  0  0  0  0  0
  -12.3319   -6.3934    5.3616 C   0  0  0  0  0  0  0  0  0  0  0  0
  -11.6080   -6.9066    4.5507 O   0  0  0  0  0  0  0  0  0  0  0  0
  1  2  1  0
  1  3  2  0
  3  4  1  0
  2  5  1  0
  2  6  2  0
  4  6  2  0
  3  7  1  0
  7  8  2  0
  7  9  1  0
  9 10  1  0
 10 11  2  0
M  END
>  <ID>  (1) 
conformer_0

$$$$
