
     RDKit          3D

 13 13  0  0  0  0  0  0  0  0999 V2000
  -16.6245   -6.0990    5.5391 C   0  0  0  0  0  0  0  0  0  0  0  0
  -15.6817   -5.9682    4.8684 C   0  0  0  0  0  0  0  0  0  0  0  0
  -17.9038   -6.3565    5.1519 C   0  0  0  0  0  0  0  0  0  0  0  0
  -17.9911   -6.5127    3.7454 C   0  0  0  0  0  0  0  0  0  0  0  0
  -19.0300   -6.5662    5.9969 C   0  0  0  0  0  0  0  0  0  0  0  0
  -16.9247   -6.3571    2.9875 C   0  0  0  0  0  0  0  0  0  0  0  0
  -15.7082   -6.0119    3.5605 C   0  0  0  0  0  0  0  0  0  0  0  0
  -14.3026   -5.6209    5.4122 N   0  0  0  0  0  0  0  0  0  0  0  0
  -13.1482   -5.9877    4.9748 C   0  0  0  0  0  0  0  0  0  0  0  0
  -12.1748   -5.9772    5.5948 N   0  0  0  0  0  0  0  0  0  0  0  0
  -13.0759   -6.9899    3.9360 N   0  0  0  0  0  0  0  0  0  0  0  0
  -19.2069   -5.6874    6.9228 O   0  0  0  0  0  0  0  0  0  0  0  0
  -20.0515   -7.3300    5.6270 O   0  0  0  0  0  0  0  0  0  0  0  0
  1  2  1  0
  1  3  2  0
  3  4  1  0
  3  5  1  0
  4  6  2  0
  2  7  2  0
  6  7  1  0
  2  8  1  0
  8  9  1  0
  9 10  2  0
  9 11  1  0
  5 12  2  0
  5 13  1  0
M  END
>  <ID>  (1) 
conformer_0

$$$$
