
     RDKit          3D

 13 14  0  0  0  0  0  0  0  0999 V2000
  -18.3870   -6.2244    6.1402 C   0  0  0  0  0  0  0  0  0  0  0  0
  -19.4239   -6.7011    5.5467 C   0  0  0  0  0  0  0  0  0  0  0  0
  -17.1077   -6.1684    5.6031 C   0  0  0  0  0  0  0  0  0  0  0  0
  -19.3456   -7.1943    4.3232 C   0  0  0  0  0  0  0  0  0  0  0  0
  -15.9851   -5.6438    6.2499 O   0  0  0  0  0  0  0  0  0  0  0  0
  -17.8827   -7.1494    3.7420 C   0  0  0  0  0  0  0  0  0  0  0  0
  -16.9103   -6.5061    4.5279 C   0  0  0  0  0  0  0  0  0  0  0  0
  -20.2466   -7.7120    3.5536 C   0  0  0  0  0  0  0  0  0  0  0  0
  -14.8667   -6.0526    5.5698 C   0  0  0  0  0  0  0  0  0  0  0  0
  -20.1456   -8.3448    2.4687 O   0  0  0  0  0  0  0  0  0  0  0  0
  -15.5687   -6.2770    4.0088 C   0  0  0  0  0  0  0  0  0  0  0  0
  -21.4784   -7.7212    4.0764 O   0  0  0  0  0  0  0  0  0  0  0  0
  -14.2387   -7.2486    5.8252 O   0  0  0  0  0  0  0  0  0  0  0  0
  1  2  1  0
  1  3  2  0
  2  4  2  0
  3  5  1  0
  4  6  1  0
  3  7  1  0
  6  7  2  0
  4  8  1  0
  5  9  1  0
  8 10  2  0
  7 11  1  0
  9 11  1  0
  8 12  1  0
  9 13  1  0
M  END
>  <ID>  (1) 
conformer_0

$$$$
