
     RDKit          3D

 14 15  0  0  0  0  0  0  0  0999 V2000
  -19.4654   -6.7261    5.5872 C   0  0  0  0  0  0  0  0  0  0  0  0
  -19.4293   -7.3286    4.5181 C   0  0  0  0  0  0  0  0  0  0  0  0
  -20.4279   -8.3167    4.0798 C   0  0  0  0  0  0  0  0  0  0  0  0
  -20.2437   -9.1480    2.9489 C   0  0  0  0  0  0  0  0  0  0  0  0
  -18.3103   -7.1225    3.6364 C   0  0  0  0  0  0  0  0  0  0  0  0
  -21.5952   -8.3439    4.7672 C   0  0  0  0  0  0  0  0  0  0  0  0
  -20.7930  -10.0769    2.7469 O   0  0  0  0  0  0  0  0  0  0  0  0
  -21.6951   -7.4401    5.9584 C   0  0  0  0  0  0  0  0  0  0  0  0
  -22.9294   -7.4841    6.7484 C   0  0  0  0  0  0  0  0  0  0  0  0
  -20.6959   -6.7947    6.4564 N   0  0  0  0  0  0  0  0  0  0  0  0
  -18.5033   -5.8397    6.2137 C   0  0  0  0  0  0  0  0  0  0  0  0
  -19.2471   -8.7655    2.0738 O   0  0  0  0  0  0  0  0  0  0  0  0
  -17.3928   -5.7523    5.4031 C   0  0  0  0  0  0  0  0  0  0  0  0
  -17.2632   -6.3130    4.1715 C   0  0  0  0  0  0  0  0  0  0  0  0
  1  2  2  0
  2  3  1  0
  3  4  1  0
  2  5  1  0
  3  6  2  0
  4  7  2  0
  6  8  1  0
  8  9  1  0
  1 10  1  0
  8 10  2  0
  1 11  1  0
  4 12  1  0
 11 13  2  0
  5 14  2  0
 13 14  1  0
M  END
>  <ID>  (1) 
conformer_0

$$$$
