
     RDKit          3D

 13 13  0  0  0  0  0  0  0  0999 V2000
  -16.6245   -6.0990    5.5391 C   0  0  0  0  0  0  0  0  0  0  0  0
  -15.6817   -5.9682    4.8684 C   0  0  0  0  0  0  0  0  0  0  0  0
  -17.9038   -6.3565    5.1519 C   0  0  0  0  0  0  0  0  0  0  0  0
  -17.9911   -6.5127    3.7454 C   0  0  0  0  0  0  0  0  0  0  0  0
  -16.8792   -6.4195    2.9710 C   0  0  0  0  0  0  0  0  0  0  0  0
  -15.6805   -6.1368    3.5633 C   0  0  0  0  0  0  0  0  0  0  0  0
  -19.2241   -6.4826    6.0648 C   0  0  0  0  0  0  0  0  0  0  0  0
  -19.1973   -5.6944    7.0709 O   0  0  0  0  0  0  0  0  0  0  0  0
  -14.3600   -5.6165    5.5082 C   0  0  0  0  0  0  0  0  0  0  0  0
  -13.1455   -5.7952    4.8368 N   0  0  0  0  0  0  0  0  0  0  0  0
  -20.1879   -7.1869    5.6664 N   0  0  0  0  0  0  0  0  0  0  0  0
  -12.0602   -6.2954    5.4604 C   0  0  0  0  0  0  0  0  0  0  0  0
  -10.9705   -6.7323    4.5988 N   0  0  0  0  0  0  0  0  0  0  0  0
  1  2  1  0
  1  3  2  0
  3  4  1  0
  4  5  2  0
  2  6  2  0
  5  6  1  0
  3  7  1  0
  7  8  2  0
  2  9  1  0
  9 10  1  0
  7 11  1  0
 10 12  1  0
 12 13  1  0
M  END
>  <ID>  (1) 
conformer_0

$$$$
