
     RDKit          3D

 16 17  0  0  0  0  0  0  0  0999 V2000
  -17.7497   -5.9811    6.0296 C   0  0  0  0  0  0  0  0  0  0  0  0
  -18.9576   -6.2720    5.6584 C   0  0  0  0  0  0  0  0  0  0  0  0
  -19.0390   -6.8425    4.5441 C   0  0  0  0  0  0  0  0  0  0  0  0
  -20.2884   -7.4374    4.1069 C   0  0  0  0  0  0  0  0  0  0  0  0
  -21.2272   -6.7858    4.0267 O   0  0  0  0  0  0  0  0  0  0  0  0
  -17.9528   -7.2243    3.7061 C   0  0  0  0  0  0  0  0  0  0  0  0
  -20.3045   -8.8286    3.8226 O   0  0  0  0  0  0  0  0  0  0  0  0
  -16.5520   -6.1680    5.2777 C   0  0  0  0  0  0  0  0  0  0  0  0
  -15.2757   -5.7225    5.7377 N   0  0  0  0  0  0  0  0  0  0  0  0
  -16.6835   -6.8064    4.0795 C   0  0  0  0  0  0  0  0  0  0  0  0
  -14.2638   -5.9867    4.8367 C   0  0  0  0  0  0  0  0  0  0  0  0
  -14.2269   -6.2244    3.7102 N   0  0  0  0  0  0  0  0  0  0  0  0
  -15.4256   -6.7926    3.2912 C   0  0  0  0  0  0  0  0  0  0  0  0
  -12.9862   -5.7140    5.5322 N   0  0  0  0  0  0  0  0  0  0  0  0
  -11.8323   -6.0775    4.7633 C   0  0  0  0  0  0  0  0  0  0  0  0
  -11.6830   -7.0178    3.8942 C   0  0  0  0  0  0  0  0  0  0  0  0
  1  2  1  0
  2  3  2  0
  3  4  1  0
  4  5  2  0
  3  6  1  0
  4  7  1  0
  1  8  2  0
  8  9  1  0
  6 10  2  0
  8 10  1  0
  9 11  1  0
 11 12  2  0
 10 13  1  0
 12 13  1  0
 11 14  1  0
 14 15  1  0
 15 16  1  0
M  END
>  <ID>  (1) 
conformer_0

$$$$
