
     RDKit          3D

  9  9  0  0  0  0  0  0  0  0999 V2000
  -16.2182   -5.8168    4.2289 C   0  0  0  0  0  0  0  0  0  0  0  0
  -17.2814   -6.3368    4.4991 C   0  0  0  0  0  0  0  0  0  0  0  0
  -18.0708   -5.9324    5.6342 C   0  0  0  0  0  0  0  0  0  0  0  0
  -17.4026   -5.0840    6.5451 C   0  0  0  0  0  0  0  0  0  0  0  0
  -16.1478   -4.5521    6.0938 C   0  0  0  0  0  0  0  0  0  0  0  0
  -15.5323   -5.0599    4.9253 C   0  0  0  0  0  0  0  0  0  0  0  0
  -18.1747   -7.2794    3.7024 N   0  0  0  0  0  0  0  0  0  0  0  0
  -18.5678   -6.8152    2.7034 O   0  0  0  0  0  0  0  0  0  0  0  0
  -18.4902   -8.2303    4.2117 O   0  0  0  0  0  0  0  0  0  0  0  0
  1  2  1  0
  2  3  2  0
  3  4  1  0
  4  5  2  0
  1  6  2  0
  5  6  1  0
  2  7  1  0
  7  8  1  0
  7  9  2  0
M  CHG  2   7   1   8  -1
M  END
>  <ID>  (1) 
conformer_0

$$$$
