
     RDKit          3D

 15 16  0  0  0  0  0  0  0  0999 V2000
  -15.0383   -5.2844    4.7826 C   0  0  0  0  0  0  0  0  0  0  0  0
  -16.2500   -5.2838    4.6747 C   0  0  0  0  0  0  0  0  0  0  0  0
  -17.1626   -4.5501    4.9973 C   0  0  0  0  0  0  0  0  0  0  0  0
  -16.7531   -6.6502    4.1557 C   0  0  0  0  0  0  0  0  0  0  0  0
  -18.5198   -4.6875    4.9144 C   0  0  0  0  0  0  0  0  0  0  0  0
  -19.5336   -3.6802    5.3077 C   0  0  0  0  0  0  0  0  0  0  0  0
  -19.0014   -5.9381    4.3761 C   0  0  0  0  0  0  0  0  0  0  0  0
  -20.4212   -6.1597    4.1998 O   0  0  0  0  0  0  0  0  0  0  0  0
  -15.7049   -7.6144    3.9169 C   0  0  0  0  0  0  0  0  0  0  0  0
  -20.1675   -3.8813    6.1453 O   0  0  0  0  0  0  0  0  0  0  0  0
  -20.8031   -7.2821    4.6242 C   0  0  0  0  0  0  0  0  0  0  0  0
  -19.8160   -2.6780    4.4355 O   0  0  0  0  0  0  0  0  0  0  0  0
  -14.2403   -6.5820    4.5315 C   0  0  0  0  0  0  0  0  0  0  0  0
  -18.0253   -6.9973    3.9377 C   0  0  0  0  0  0  0  0  0  0  0  0
  -13.7837   -7.0428    5.6073 O   0  0  0  0  0  0  0  0  0  0  0  0
  1  2  2  0
  2  3  1  0
  2  4  1  0
  3  5  2  0
  5  6  1  0
  5  7  1  0
  7  8  1  0
  4  9  2  0
  6 10  2  0
  8 11  1  0
  6 12  1  0
  1 13  1  0
  9 13  1  0
  4 14  1  0
  7 14  2  0
 13 15  1  0
M  END
>  <ID>  (1) 
conformer_0

$$$$
