
     RDKit          3D

  7  6  0  0  0  0  0  0  0  0999 V2000
  -11.0756   -7.2744    3.9505 C   0  0  0  0  0  0  0  0  0  0  0  0
  -12.2734   -6.7503    4.3298 N   0  0  0  0  0  0  0  0  0  0  0  0
  -13.4348   -6.7919    3.8624 C   0  0  0  0  0  0  0  0  0  0  0  0
  -14.5210   -6.2488    4.7201 C   0  0  0  0  0  0  0  0  0  0  0  0
  -14.7238   -5.0116    4.7785 O   0  0  0  0  0  0  0  0  0  0  0  0
  -15.4950   -7.0876    5.3390 O   0  0  0  0  0  0  0  0  0  0  0  0
  -12.0471   -5.9715    5.5370 O   0  0  0  0  0  0  0  0  0  0  0  0
  1  2  1  0
  2  3  1  0
  3  4  1  0
  4  5  1  0
  4  6  2  0
  2  7  1  0
M  END
>  <ID>  (1) 
conformer_0

$$$$
