
     RDKit          3D

 11 12  0  0  0  0  0  0  0  0999 V2000
  -19.0437   -7.7258    4.1005 C   0  0  0  0  0  0  0  0  0  0  0  0
  -18.2534   -6.7675    4.2728 C   0  0  0  0  0  0  0  0  0  0  0  0
  -17.9248   -5.8779    3.3520 C   0  0  0  0  0  0  0  0  0  0  0  0
  -19.7398   -7.8918    2.9093 C   0  0  0  0  0  0  0  0  0  0  0  0
  -19.5597   -7.0343    1.9207 C   0  0  0  0  0  0  0  0  0  0  0  0
  -16.9711   -4.8592    3.6754 C   0  0  0  0  0  0  0  0  0  0  0  0
  -18.6649   -6.0062    2.1298 C   0  0  0  0  0  0  0  0  0  0  0  0
  -16.2919   -5.0114    4.9030 C   0  0  0  0  0  0  0  0  0  0  0  0
  -15.2334   -4.0718    5.1237 C   0  0  0  0  0  0  0  0  0  0  0  0
  -16.5827   -6.3144    5.7333 C   0  0  0  0  0  0  0  0  0  0  0  0
  -17.6282   -6.7495    5.6173 C   0  0  0  0  0  0  0  0  0  0  0  0
  1  2  2  0
  2  3  1  0
  1  4  1  0
  4  5  2  0
  3  6  1  0
  3  7  2  0
  5  7  1  0
  6  8  2  0
  8  9  1  0
  8 10  1  0
  2 11  1  0
 10 11  1  0
M  END
>  <ID>  (1) 
conformer_0

$$$$
