
     RDKit          3D

 13 13  0  0  0  0  0  0  0  0999 V2000
  -19.1326   -7.1815    4.9124 C   0  0  0  0  0  0  0  0  0  0  0  0
  -18.3271   -6.4846    5.4754 C   0  0  0  0  0  0  0  0  0  0  0  0
  -16.9982   -6.2581    5.0054 C   0  0  0  0  0  0  0  0  0  0  0  0
  -20.4538   -7.5155    5.3384 C   0  0  0  0  0  0  0  0  0  0  0  0
  -20.8693   -6.7080    6.3516 O   0  0  0  0  0  0  0  0  0  0  0  0
  -16.7422   -6.8875    3.7463 C   0  0  0  0  0  0  0  0  0  0  0  0
  -16.0356   -5.3677    5.6186 C   0  0  0  0  0  0  0  0  0  0  0  0
  -18.7294   -7.8749    3.7074 C   0  0  0  0  0  0  0  0  0  0  0  0
  -14.6833   -5.8625    5.3222 C   0  0  0  0  0  0  0  0  0  0  0  0
  -17.5289   -7.6424    3.1648 C   0  0  0  0  0  0  0  0  0  0  0  0
  -21.1747   -8.3581    4.8122 O   0  0  0  0  0  0  0  0  0  0  0  0
  -13.6916   -5.1514    5.2949 O   0  0  0  0  0  0  0  0  0  0  0  0
  -14.4395   -7.1850    5.3638 O   0  0  0  0  0  0  0  0  0  0  0  0
  1  2  1  0
  2  3  2  0
  1  4  1  0
  4  5  1  0
  3  6  1  0
  3  7  1  0
  1  8  2  0
  7  9  1  0
  6 10  2  0
  8 10  1  0
  4 11  2  0
  9 12  2  0
  9 13  1  0
M  END
>  <ID>  (1) 
conformer_0

$$$$
