
     RDKit          3D

  9  9  0  0  0  0  0  0  0  0999 V2000
  -14.5674   -6.8804    4.9649 N   0  0  0  0  0  0  0  0  0  0  0  0
  -15.4972   -6.0276    4.6600 C   0  0  0  0  0  0  0  0  0  0  0  0
  -16.6569   -6.5094    4.0702 C   0  0  0  0  0  0  0  0  0  0  0  0
  -15.8819   -5.2250    5.8358 C   0  0  0  0  0  0  0  0  0  0  0  0
  -13.2585   -6.5122    5.4889 C   0  0  0  0  0  0  0  0  0  0  0  0
  -17.7610   -6.8080    4.9803 C   0  0  0  0  0  0  0  0  0  0  0  0
  -12.2236   -6.4194    4.6225 N   0  0  0  0  0  0  0  0  0  0  0  0
  -17.4675   -5.4553    5.8333 C   0  0  0  0  0  0  0  0  0  0  0  0
  -19.0662   -6.9968    4.5630 C   0  0  0  0  0  0  0  0  0  0  0  0
  1  2  1  0
  2  3  1  0
  2  4  1  0
  1  5  1  0
  3  6  1  0
  5  7  1  0
  4  8  1  0
  6  8  1  0
  6  9  1  0
M  END
>  <ID>  (1) 
conformer_0

$$$$
