
     RDKit          3D

 13 13  0  0  0  0  0  0  0  0999 V2000
  -14.5865   -6.9887    4.9376 C   0  0  0  0  0  0  0  0  0  0  0  0
  -15.5178   -6.0501    4.6869 C   0  0  0  0  0  0  0  0  0  0  0  0
  -16.4098   -6.4108    3.6618 C   0  0  0  0  0  0  0  0  0  0  0  0
  -14.9763   -4.7470    4.4410 C   0  0  0  0  0  0  0  0  0  0  0  0
  -13.2049   -6.6171    4.8166 N   0  0  0  0  0  0  0  0  0  0  0  0
  -12.3854   -7.1238    3.9457 N   0  0  0  0  0  0  0  0  0  0  0  0
  -11.1438   -6.7654    4.1138 C   0  0  0  0  0  0  0  0  0  0  0  0
  -12.7389   -5.8543    5.9245 C   0  0  0  0  0  0  0  0  0  0  0  0
  -17.7955   -5.8367    3.8365 C   0  0  0  0  0  0  0  0  0  0  0  0
  -18.7928   -6.7063    4.3133 C   0  0  0  0  0  0  0  0  0  0  0  0
  -19.0021   -7.8835    3.6020 O   0  0  0  0  0  0  0  0  0  0  0  0
  -11.2613   -5.9202    5.4078 C   0  0  0  0  0  0  0  0  0  0  0  0
  -20.0181   -6.2584    4.7695 C   0  0  0  0  0  0  0  0  0  0  0  0
  1  2  1  0
  2  3  1  0
  2  4  1  0
  1  5  1  0
  5  6  1  0
  6  7  2  0
  5  8  1  0
  3  9  1  0
  9 10  1  0
 10 11  1  0
  7 12  1  0
  8 12  2  0
 10 13  1  0
M  END
>  <ID>  (1) 
conformer_0

$$$$
