
     RDKit          3D

 15 16  0  0  0  0  0  0  0  0999 V2000
  -15.0383   -5.2844    4.7826 C   0  0  0  0  0  0  0  0  0  0  0  0
  -16.2500   -5.2838    4.6747 C   0  0  0  0  0  0  0  0  0  0  0  0
  -17.1626   -4.5501    4.9973 C   0  0  0  0  0  0  0  0  0  0  0  0
  -18.5794   -4.9701    4.9812 C   0  0  0  0  0  0  0  0  0  0  0  0
  -16.5448   -6.7382    4.2405 C   0  0  0  0  0  0  0  0  0  0  0  0
  -19.6756   -4.0680    5.4092 C   0  0  0  0  0  0  0  0  0  0  0  0
  -20.8537   -4.5128    5.5177 C   0  0  0  0  0  0  0  0  0  0  0  0
  -13.9118   -6.1690    4.7127 C   0  0  0  0  0  0  0  0  0  0  0  0
  -21.9961   -3.6672    5.8790 C   0  0  0  0  0  0  0  0  0  0  0  0
  -17.7956   -7.0248    4.0500 C   0  0  0  0  0  0  0  0  0  0  0  0
  -21.2895   -5.8932    5.2062 C   0  0  0  0  0  0  0  0  0  0  0  0
  -13.4915   -6.5913    3.7529 O   0  0  0  0  0  0  0  0  0  0  0  0
  -18.8969   -6.1486    4.4710 C   0  0  0  0  0  0  0  0  0  0  0  0
  -13.2359   -6.3567    5.8498 O   0  0  0  0  0  0  0  0  0  0  0  0
  -20.1339   -6.7581    4.7380 C   0  0  0  0  0  0  0  0  0  0  0  0
  1  2  2  3
  2  3  1  0
  3  4  2  0
  2  5  1  0
  4  6  1  0
  6  7  2  0
  1  8  1  0
  7  9  1  0
  5 10  2  0
  7 11  1  0
  8 12  1  0
  4 13  1  0
 10 13  1  0
  8 14  2  0
 11 15  2  0
 13 15  1  0
M  END
>  <ID>  (1) 
conformer_0

$$$$
