
     RDKit          3D

 14 15  0  0  0  0  0  0  0  0999 V2000
  -15.2119   -5.1649    4.8701 C   0  0  0  0  0  0  0  0  0  0  0  0
  -14.4174   -6.2671    4.9405 C   0  0  0  0  0  0  0  0  0  0  0  0
  -16.5625   -5.3035    4.7360 C   0  0  0  0  0  0  0  0  0  0  0  0
  -17.0916   -6.5590    4.5288 C   0  0  0  0  0  0  0  0  0  0  0  0
  -16.2260   -7.6669    4.6213 C   0  0  0  0  0  0  0  0  0  0  0  0
  -18.6605   -6.7149    4.3087 C   0  0  0  0  0  0  0  0  0  0  0  0
  -19.4174   -6.4368    5.2087 C   0  0  0  0  0  0  0  0  0  0  0  0
  -14.9058   -7.4889    4.8532 N   0  0  0  0  0  0  0  0  0  0  0  0
  -20.8227   -6.8101    4.9416 C   0  0  0  0  0  0  0  0  0  0  0  0
  -21.0727   -7.2929    3.9239 N   0  0  0  0  0  0  0  0  0  0  0  0
  -12.9338   -6.1124    5.3000 C   0  0  0  0  0  0  0  0  0  0  0  0
  -20.2752   -7.6466    2.9284 C   0  0  0  0  0  0  0  0  0  0  0  0
  -18.9395   -7.3586    3.0935 C   0  0  0  0  0  0  0  0  0  0  0  0
  -12.0969   -6.8248    4.5125 N   0  0  0  0  0  0  0  0  0  0  0  0
  1  2  2  0
  1  3  1  0
  3  4  2  0
  4  5  1  0
  4  6  1  0
  6  7  2  0
  2  8  1  0
  5  8  2  0
  7  9  1  0
  9 10  2  0
  2 11  1  0
 10 12  1  0
  6 13  1  0
 12 13  2  0
 11 14  1  0
M  END
>  <ID>  (1) 
conformer_0

$$$$
