
     RDKit          3D

 10 10  0  0  0  0  0  0  0  0999 V2000
  -15.0958   -6.9042    5.2877 C   0  0  0  0  0  0  0  0  0  0  0  0
  -16.1530   -6.2469    4.7379 C   0  0  0  0  0  0  0  0  0  0  0  0
  -13.8211   -6.1897    5.1980 C   0  0  0  0  0  0  0  0  0  0  0  0
  -16.6022   -5.1848    5.1503 O   0  0  0  0  0  0  0  0  0  0  0  0
  -17.8026   -4.7614    4.7495 C   0  0  0  0  0  0  0  0  0  0  0  0
  -12.9812   -6.6618    4.2222 N   0  0  0  0  0  0  0  0  0  0  0  0
  -11.5516   -6.4371    4.2396 C   0  0  0  0  0  0  0  0  0  0  0  0
  -16.8875   -6.7254    3.7414 C   0  0  0  0  0  0  0  0  0  0  0  0
  -10.7832   -7.2323    3.6489 O   0  0  0  0  0  0  0  0  0  0  0  0
  -18.0658   -5.6865    3.6660 C   0  0  0  0  0  0  0  0  0  0  0  0
  1  2  1  0
  1  3  1  0
  2  4  1  0
  4  5  1  0
  3  6  1  0
  6  7  1  0
  2  8  2  0
  7  9  2  0
  5 10  2  0
  8 10  1  0
M  END
>  <ID>  (1) 
conformer_0

$$$$
