
     RDKit          3D

 16 17  0  0  0  0  0  0  0  0999 V2000
  -15.0383   -5.2844    4.7826 C   0  0  0  0  0  0  0  0  0  0  0  0
  -16.2500   -5.2838    4.6747 C   0  0  0  0  0  0  0  0  0  0  0  0
  -14.1497   -6.3128    5.2147 C   0  0  0  0  0  0  0  0  0  0  0  0
  -14.7787   -7.5629    5.3739 N   0  0  0  0  0  0  0  0  0  0  0  0
  -16.9275   -6.5699    4.9210 C   0  0  0  0  0  0  0  0  0  0  0  0
  -12.7799   -6.2918    5.3184 N   0  0  0  0  0  0  0  0  0  0  0  0
  -18.3880   -6.7671    4.7386 C   0  0  0  0  0  0  0  0  0  0  0  0
  -19.2402   -6.1688    5.5010 C   0  0  0  0  0  0  0  0  0  0  0  0
  -19.0741   -7.3415    3.7733 C   0  0  0  0  0  0  0  0  0  0  0  0
  -11.9308   -6.7270    4.4275 C   0  0  0  0  0  0  0  0  0  0  0  0
  -20.4548   -7.2953    4.1788 N   0  0  0  0  0  0  0  0  0  0  0  0
  -16.1335   -7.6208    5.2348 C   0  0  0  0  0  0  0  0  0  0  0  0
  -21.4832   -7.8989    3.4582 C   0  0  0  0  0  0  0  0  0  0  0  0
  -10.7622   -6.8426    4.6442 O   0  0  0  0  0  0  0  0  0  0  0  0
  -12.3385   -7.3201    3.2590 N   0  0  0  0  0  0  0  0  0  0  0  0
  -20.4778   -6.5452    5.2822 N   0  0  0  0  0  0  0  0  0  0  0  0
  1  2  1  0
  1  3  2  0
  3  4  1  0
  2  5  2  0
  3  6  1  0
  5  7  1  0
  7  8  1  0
  7  9  2  0
  6 10  1  0
  9 11  1  0
  4 12  2  0
  5 12  1  0
 11 13  1  0
 10 14  2  0
 10 15  1  0
  8 16  2  0
 11 16  1  0
M  END
>  <ID>  (1) 
conformer_0

$$$$
