
     RDKit          3D

 15 16  0  0  0  0  0  0  0  0999 V2000
  -16.6245   -6.0990    5.5391 C   0  0  0  0  0  0  0  0  0  0  0  0
  -17.8056   -6.2953    5.7185 C   0  0  0  0  0  0  0  0  0  0  0  0
  -18.5127   -6.7999    4.6448 C   0  0  0  0  0  0  0  0  0  0  0  0
  -15.7627   -6.3849    4.5138 C   0  0  0  0  0  0  0  0  0  0  0  0
  -14.3590   -6.1956    4.3698 C   0  0  0  0  0  0  0  0  0  0  0  0
  -13.5212   -6.7468    5.2501 N   0  0  0  0  0  0  0  0  0  0  0  0
  -16.6108   -6.9101    3.5588 N   0  0  0  0  0  0  0  0  0  0  0  0
  -19.9721   -7.1008    4.7786 C   0  0  0  0  0  0  0  0  0  0  0  0
  -17.8427   -7.1865    3.5787 C   0  0  0  0  0  0  0  0  0  0  0  0
  -12.2302   -6.8725    4.7524 C   0  0  0  0  0  0  0  0  0  0  0  0
  -20.4979   -7.9719    3.9368 C   0  0  0  0  0  0  0  0  0  0  0  0
  -11.9671   -7.1141    3.6392 N   0  0  0  0  0  0  0  0  0  0  0  0
  -11.3011   -6.7698    5.6525 O   0  0  0  0  0  0  0  0  0  0  0  0
  -18.5006   -7.8991    2.5206 N   0  0  0  0  0  0  0  0  0  0  0  0
  -19.7258   -8.2369    2.6806 C   0  0  0  0  0  0  0  0  0  0  0  0
  1  2  2  0
  2  3  1  0
  1  4  1  0
  4  5  1  0
  5  6  1  0
  4  7  2  0
  3  8  1  0
  3  9  2  0
  7  9  1  0
  6 10  1  0
  8 11  2  0
 10 12  1  0
 10 13  2  0
  9 14  1  0
 11 15  1  0
 14 15  2  0
M  END
>  <ID>  (1) 
conformer_0

$$$$
