
     RDKit          3D

 13 13  0  0  0  0  0  0  0  0999 V2000
  -16.6245   -6.0990    5.5391 C   0  0  0  0  0  0  0  0  0  0  0  0
  -15.6817   -5.9682    4.8684 C   0  0  0  0  0  0  0  0  0  0  0  0
  -17.9038   -6.3565    5.1519 C   0  0  0  0  0  0  0  0  0  0  0  0
  -17.9911   -6.5127    3.7454 C   0  0  0  0  0  0  0  0  0  0  0  0
  -19.0300   -6.5662    5.9969 C   0  0  0  0  0  0  0  0  0  0  0  0
  -14.2861   -5.6558    5.4036 N   0  0  0  0  0  0  0  0  0  0  0  0
  -16.9211   -6.3208    2.9567 C   0  0  0  0  0  0  0  0  0  0  0  0
  -13.2903   -6.4669    5.0246 C   0  0  0  0  0  0  0  0  0  0  0  0
  -13.4490   -7.1960    4.1508 O   0  0  0  0  0  0  0  0  0  0  0  0
  -12.1125   -6.2755    5.6132 O   0  0  0  0  0  0  0  0  0  0  0  0
  -15.7420   -6.1026    3.5219 C   0  0  0  0  0  0  0  0  0  0  0  0
  -19.2056   -5.7033    6.9365 O   0  0  0  0  0  0  0  0  0  0  0  0
  -19.9437   -7.3784    5.8125 O   0  0  0  0  0  0  0  0  0  0  0  0
  1  2  1  0
  1  3  2  0
  3  4  1  0
  3  5  1  0
  2  6  1  0
  4  7  2  0
  6  8  1  0
  8  9  1  0
  8 10  2  0
  2 11  2  0
  7 11  1  0
  5 12  1  0
  5 13  2  0
M  END
>  <ID>  (1) 
conformer_0

$$$$
