
     RDKit          3D

 13 14  0  0  0  0  0  0  0  0999 V2000
  -18.3870   -6.2244    6.1402 C   0  0  0  0  0  0  0  0  0  0  0  0
  -19.4239   -6.7011    5.5467 C   0  0  0  0  0  0  0  0  0  0  0  0
  -17.1136   -6.1162    5.6171 C   0  0  0  0  0  0  0  0  0  0  0  0
  -16.0226   -5.6473    6.2700 O   0  0  0  0  0  0  0  0  0  0  0  0
  -19.2613   -7.3250    4.2388 C   0  0  0  0  0  0  0  0  0  0  0  0
  -14.8483   -5.6517    5.4809 C   0  0  0  0  0  0  0  0  0  0  0  0
  -16.9991   -6.6754    4.3834 C   0  0  0  0  0  0  0  0  0  0  0  0
  -14.8152   -6.7634    4.5271 C   0  0  0  0  0  0  0  0  0  0  0  0
  -18.0427   -7.2810    3.7163 C   0  0  0  0  0  0  0  0  0  0  0  0
  -13.5016   -6.7308    4.0383 N   0  0  0  0  0  0  0  0  0  0  0  0
  -12.1941   -6.8435    4.8454 C   0  0  0  0  0  0  0  0  0  0  0  0
  -11.0784   -7.0174    4.2433 C   0  0  0  0  0  0  0  0  0  0  0  0
  -15.7765   -6.6162    3.6833 N   0  0  0  0  0  0  0  0  0  0  0  0
  1  2  2  0
  1  3  1  0
  3  4  1  0
  2  5  1  0
  4  6  1  0
  3  7  2  0
  6  8  1  0
  5  9  2  0
  7  9  1  0
  8 10  1  0
 10 11  1  0
 11 12  2  0
  7 13  1  0
  8 13  1  0
M  END
>  <ID>  (1) 
conformer_0

$$$$
