
     RDKit          3D

 15 16  0  0  0  0  0  0  0  0999 V2000
  -15.2119   -5.1649    4.8701 C   0  0  0  0  0  0  0  0  0  0  0  0
  -16.4299   -5.1988    4.6543 C   0  0  0  0  0  0  0  0  0  0  0  0
  -14.3942   -6.4149    4.8025 C   0  0  0  0  0  0  0  0  0  0  0  0
  -12.9945   -6.4425    4.8694 N   0  0  0  0  0  0  0  0  0  0  0  0
  -15.1885   -7.4968    5.1066 N   0  0  0  0  0  0  0  0  0  0  0  0
  -17.2348   -6.4262    4.8262 C   0  0  0  0  0  0  0  0  0  0  0  0
  -16.5075   -7.5479    5.0353 C   0  0  0  0  0  0  0  0  0  0  0  0
  -12.3193   -6.9659    3.9198 C   0  0  0  0  0  0  0  0  0  0  0  0
  -18.6799   -6.4510    4.8204 C   0  0  0  0  0  0  0  0  0  0  0  0
  -19.3835   -6.0630    5.8118 C   0  0  0  0  0  0  0  0  0  0  0  0
  -19.3773   -6.9237    3.7081 C   0  0  0  0  0  0  0  0  0  0  0  0
  -20.7097   -6.1236    5.9950 C   0  0  0  0  0  0  0  0  0  0  0  0
  -21.4191   -6.5876    4.8816 C   0  0  0  0  0  0  0  0  0  0  0  0
  -20.7693   -7.0372    3.7967 C   0  0  0  0  0  0  0  0  0  0  0  0
  -10.9085   -7.1445    4.2143 C   0  0  0  0  0  0  0  0  0  0  0  0
  1  2  2  0
  1  3  1  0
  3  4  1  0
  3  5  2  0
  2  6  1  0
  5  7  1  0
  6  7  2  0
  4  8  1  0
  6  9  1  0
  9 10  2  0
  9 11  1  0
 10 12  1  0
 12 13  2  0
 11 14  2  0
 13 14  1  0
  8 15  1  0
M  END
>  <ID>  (1) 
conformer_0

$$$$
