
     RDKit          3D

 10 10  0  0  0  0  0  0  0  0999 V2000
  -15.0958   -6.9042    5.2877 C   0  0  0  0  0  0  0  0  0  0  0  0
  -16.1530   -6.2469    4.7379 C   0  0  0  0  0  0  0  0  0  0  0  0
  -13.8211   -6.1897    5.1980 C   0  0  0  0  0  0  0  0  0  0  0  0
  -16.6022   -5.1848    5.1503 O   0  0  0  0  0  0  0  0  0  0  0  0
  -17.8026   -4.7614    4.7495 C   0  0  0  0  0  0  0  0  0  0  0  0
  -12.8414   -6.6436    5.9733 O   0  0  0  0  0  0  0  0  0  0  0  0
  -18.6243   -5.7661    4.6344 C   0  0  0  0  0  0  0  0  0  0  0  0
  -17.5965   -7.0241    4.7893 C   0  0  0  0  0  0  0  0  0  0  0  0
  -19.6757   -5.9420    3.9580 O   0  0  0  0  0  0  0  0  0  0  0  0
  -17.9357   -7.7203    3.5222 O   0  0  0  0  0  0  0  0  0  0  0  0
  1  2  1  0
  1  3  1  0
  2  4  1  0
  4  5  1  0
  3  6  1  0
  5  7  1  0
  2  8  1  0
  7  8  1  0
  7  9  1  0
  8 10  1  0
M  END
>  <ID>  (1) 
conformer_0

$$$$
