
     RDKit          3D

 16 17  0  0  0  0  0  0  0  0999 V2000
  -15.0383   -5.2844    4.7826 C   0  0  0  0  0  0  0  0  0  0  0  0
  -16.2500   -5.2838    4.6747 C   0  0  0  0  0  0  0  0  0  0  0  0
  -14.1497   -6.3128    5.2147 C   0  0  0  0  0  0  0  0  0  0  0  0
  -14.7787   -7.5629    5.3739 N   0  0  0  0  0  0  0  0  0  0  0  0
  -16.9275   -6.5699    4.9210 C   0  0  0  0  0  0  0  0  0  0  0  0
  -12.7799   -6.2918    5.3184 N   0  0  0  0  0  0  0  0  0  0  0  0
  -18.3880   -6.7671    4.7386 C   0  0  0  0  0  0  0  0  0  0  0  0
  -19.2402   -6.1688    5.5010 C   0  0  0  0  0  0  0  0  0  0  0  0
  -19.0741   -7.3415    3.7733 C   0  0  0  0  0  0  0  0  0  0  0  0
  -20.3401   -7.6517    3.6431 C   0  0  0  0  0  0  0  0  0  0  0  0
  -16.1151   -7.6508    5.2064 C   0  0  0  0  0  0  0  0  0  0  0  0
  -21.1510   -7.0212    4.6525 C   0  0  0  0  0  0  0  0  0  0  0  0
  -11.9340   -6.9358    4.5274 C   0  0  0  0  0  0  0  0  0  0  0  0
  -20.5846   -6.2480    5.6419 C   0  0  0  0  0  0  0  0  0  0  0  0
  -10.8993   -7.0814    4.7316 O   0  0  0  0  0  0  0  0  0  0  0  0
  -12.3541   -7.4331    3.3201 N   0  0  0  0  0  0  0  0  0  0  0  0
  1  2  1  0
  1  3  2  0
  3  4  1  0
  2  5  2  0
  3  6  1  0
  5  7  1  0
  7  8  1  0
  7  9  2  0
  9 10  1  0
  4 11  2  0
  5 11  1  0
 10 12  2  0
  6 13  1  0
  8 14  2  0
 12 14  1  0
 13 15  2  0
 13 16  1  0
M  END
>  <ID>  (1) 
conformer_0

$$$$
