
     RDKit          3D

 16 17  0  0  0  0  0  0  0  0999 V2000
  -16.6245   -6.0990    5.5391 C   0  0  0  0  0  0  0  0  0  0  0  0
  -15.6817   -5.9682    4.8684 C   0  0  0  0  0  0  0  0  0  0  0  0
  -15.7242   -6.3347    3.6244 N   0  0  0  0  0  0  0  0  0  0  0  0
  -17.8498   -6.4704    5.1497 C   0  0  0  0  0  0  0  0  0  0  0  0
  -17.9155   -6.8861    3.8687 C   0  0  0  0  0  0  0  0  0  0  0  0
  -19.0115   -6.5453    6.1079 C   0  0  0  0  0  0  0  0  0  0  0  0
  -19.0380   -5.6332    7.0446 C   0  0  0  0  0  0  0  0  0  0  0  0
  -20.2150   -5.4389    7.7596 C   0  0  0  0  0  0  0  0  0  0  0  0
  -14.2718   -5.4744    5.4444 C   0  0  0  0  0  0  0  0  0  0  0  0
  -20.2402   -6.9813    5.7045 C   0  0  0  0  0  0  0  0  0  0  0  0
  -16.8649   -6.7632    3.2272 C   0  0  0  0  0  0  0  0  0  0  0  0
  -21.3143   -6.0672    7.5319 C   0  0  0  0  0  0  0  0  0  0  0  0
  -13.1044   -6.2927    4.9364 C   0  0  0  0  0  0  0  0  0  0  0  0
  -21.3474   -6.8610    6.3677 C   0  0  0  0  0  0  0  0  0  0  0  0
  -13.0841   -6.7677    3.7997 N   0  0  0  0  0  0  0  0  0  0  0  0
  -12.1299   -6.4344    5.6215 O   0  0  0  0  0  0  0  0  0  0  0  0
  1  2  2  0
  2  3  1  0
  1  4  1  0
  4  5  2  0
  4  6  1  0
  6  7  2  0
  7  8  1  0
  2  9  1  0
  6 10  1  0
  3 11  2  0
  5 11  1  0
  8 12  2  0
  9 13  1  0
 10 14  2  0
 12 14  1  0
 13 15  1  0
 13 16  2  0
M  END
>  <ID>  (1) 
conformer_0

$$$$
