
     RDKit          3D

 14 14  0  0  0  0  0  0  0  0999 V2000
  -15.2119   -5.1649    4.8701 C   0  0  0  0  0  0  0  0  0  0  0  0
  -16.4299   -5.1988    4.6543 C   0  0  0  0  0  0  0  0  0  0  0  0
  -14.3199   -6.3474    4.8122 C   0  0  0  0  0  0  0  0  0  0  0  0
  -17.0662   -6.5076    4.4161 C   0  0  0  0  0  0  0  0  0  0  0  0
  -18.5366   -6.6304    4.2198 C   0  0  0  0  0  0  0  0  0  0  0  0
  -14.9279   -7.5674    4.7304 N   0  0  0  0  0  0  0  0  0  0  0  0
  -16.2885   -7.6060    4.4993 C   0  0  0  0  0  0  0  0  0  0  0  0
  -19.0100   -6.6182    3.1889 O   0  0  0  0  0  0  0  0  0  0  0  0
  -19.3619   -6.6778    5.2968 N   0  0  0  0  0  0  0  0  0  0  0  0
  -12.9504   -6.2743    5.1264 C   0  0  0  0  0  0  0  0  0  0  0  0
  -18.8438   -6.5310    6.6572 C   0  0  0  0  0  0  0  0  0  0  0  0
  -12.5163   -5.8708    6.1596 O   0  0  0  0  0  0  0  0  0  0  0  0
  -20.7509   -6.7948    5.1905 C   0  0  0  0  0  0  0  0  0  0  0  0
  -12.1236   -6.8102    4.1569 N   0  0  0  0  0  0  0  0  0  0  0  0
  1  2  2  0
  1  3  1  0
  2  4  1  0
  4  5  1  0
  3  6  2  0
  4  7  2  0
  6  7  1  0
  5  8  2  0
  5  9  1  0
  3 10  1  0
  9 11  1  0
 10 12  2  0
  9 13  1  0
 10 14  1  0
M  END
>  <ID>  (1) 
conformer_0

$$$$
