
     RDKit          3D

  8  8  0  0  0  0  0  0  0  0999 V2000
  -18.3870   -6.2244    6.1402 C   0  0  0  0  0  0  0  0  0  0  0  0
  -19.4239   -6.7011    5.5467 C   0  0  0  0  0  0  0  0  0  0  0  0
  -19.2798   -7.0136    4.2902 C   0  0  0  0  0  0  0  0  0  0  0  0
  -20.3983   -7.7323    3.5727 O   0  0  0  0  0  0  0  0  0  0  0  0
  -18.1859   -6.7493    3.4265 C   0  0  0  0  0  0  0  0  0  0  0  0
  -20.3124   -9.0911    3.4009 C   0  0  0  0  0  0  0  0  0  0  0  0
  -17.1089   -6.1073    4.0984 C   0  0  0  0  0  0  0  0  0  0  0  0
  -17.1556   -5.8037    5.5017 C   0  0  0  0  0  0  0  0  0  0  0  0
  1  2  1  0
  2  3  2  0
  3  4  1  0
  3  5  1  0
  4  6  1  0
  5  7  2  0
  1  8  2  0
  7  8  1  0
M  END
>  <ID>  (1) 
conformer_0

$$$$
