
     RDKit          3D

 13 13  0  0  0  0  0  0  0  0999 V2000
  -15.4886   -6.6055    5.4197 C   0  0  0  0  0  0  0  0  0  0  0  0
  -14.5124   -6.0947    4.8797 C   0  0  0  0  0  0  0  0  0  0  0  0
  -13.2011   -6.2653    5.3884 N   0  0  0  0  0  0  0  0  0  0  0  0
  -12.2058   -6.7024    4.5961 C   0  0  0  0  0  0  0  0  0  0  0  0
  -14.6659   -5.7087    3.7945 O   0  0  0  0  0  0  0  0  0  0  0  0
  -16.8703   -6.6214    4.8307 C   0  0  0  0  0  0  0  0  0  0  0  0
  -17.2663   -7.1409    3.8921 C   0  0  0  0  0  0  0  0  0  0  0  0
  -11.1020   -6.7553    4.9778 O   0  0  0  0  0  0  0  0  0  0  0  0
  -18.0198   -6.1598    5.7668 C   0  0  0  0  0  0  0  0  0  0  0  0
  -18.6847   -7.1978    3.6745 N   0  0  0  0  0  0  0  0  0  0  0  0
  -12.3737   -6.8297    3.2335 N   0  0  0  0  0  0  0  0  0  0  0  0
  -19.4688   -7.6855    2.6626 C   0  0  0  0  0  0  0  0  0  0  0  0
  -19.3306   -6.5519    4.8838 C   0  0  0  0  0  0  0  0  0  0  0  0
  1  2  1  0
  2  3  1  0
  3  4  1  0
  2  5  2  0
  1  6  1  0
  6  7  2  0
  4  8  2  0
  6  9  1  0
  7 10  1  0
  4 11  1  0
 10 12  1  0
  9 13  2  0
 10 13  1  0
M  END
>  <ID>  (1) 
conformer_0

$$$$
