
     RDKit          3D

 15 17  0  0  0  0  0  0  0  0999 V2000
  -18.3870   -6.2244    6.1402 C   0  0  0  0  0  0  0  0  0  0  0  0
  -18.3684   -6.6877    4.9767 C   0  0  0  0  0  0  0  0  0  0  0  0
  -17.2519   -5.5700    6.6080 N   0  0  0  0  0  0  0  0  0  0  0  0
  -16.0931   -5.6533    5.8860 C   0  0  0  0  0  0  0  0  0  0  0  0
  -14.9196   -5.1816    6.1949 N   0  0  0  0  0  0  0  0  0  0  0  0
  -16.1177   -6.3383    4.6379 C   0  0  0  0  0  0  0  0  0  0  0  0
  -13.8050   -5.3957    5.3632 C   0  0  0  0  0  0  0  0  0  0  0  0
  -17.3476   -6.8218    4.0976 C   0  0  0  0  0  0  0  0  0  0  0  0
  -19.8043   -7.3725    4.4949 C   0  0  0  0  0  0  0  0  0  0  0  0
  -19.7795   -8.2080    3.4107 C   0  0  0  0  0  0  0  0  0  0  0  0
  -20.8943   -6.8299    5.0320 C   0  0  0  0  0  0  0  0  0  0  0  0
  -13.8592   -6.0247    4.1913 N   0  0  0  0  0  0  0  0  0  0  0  0
  -21.2970   -8.5711    3.3197 C   0  0  0  0  0  0  0  0  0  0  0  0
  -14.8761   -6.5738    3.8616 C   0  0  0  0  0  0  0  0  0  0  0  0
  -22.0026   -7.7173    4.3002 N   0  0  0  0  0  0  0  0  0  0  0  0
  1  2  1  0
  1  3  2  0
  3  4  1  0
  4  5  1  0
  4  6  2  0
  5  7  2  0
  2  8  2  0
  6  8  1  0
  2  9  1  0
  9 10  2  0
  9 11  1  0
  7 12  1  0
 10 13  1  0
  6 14  1  0
 12 14  2  0
 11 15  1  0
 13 15  2  0
M  END
>  <ID>  (1) 
conformer_0

$$$$
