
     RDKit          3D

 16 17  0  0  0  0  0  0  0  0999 V2000
  -16.6245   -6.0990    5.5391 C   0  0  0  0  0  0  0  0  0  0  0  0
  -15.6817   -5.9682    4.8684 C   0  0  0  0  0  0  0  0  0  0  0  0
  -17.9038   -6.3565    5.1519 C   0  0  0  0  0  0  0  0  0  0  0  0
  -17.9911   -6.5127    3.7454 C   0  0  0  0  0  0  0  0  0  0  0  0
  -19.0300   -6.5662    5.9969 C   0  0  0  0  0  0  0  0  0  0  0  0
  -14.2861   -5.6558    5.4036 N   0  0  0  0  0  0  0  0  0  0  0  0
  -16.9211   -6.3208    2.9567 C   0  0  0  0  0  0  0  0  0  0  0  0
  -15.6593   -6.0408    3.5140 N   0  0  0  0  0  0  0  0  0  0  0  0
  -19.3566   -6.8250    3.1749 C   0  0  0  0  0  0  0  0  0  0  0  0
  -20.2882   -6.7829    5.4140 C   0  0  0  0  0  0  0  0  0  0  0  0
  -19.5685   -6.9859    1.7777 O   0  0  0  0  0  0  0  0  0  0  0  0
  -13.1139   -6.2773    4.9104 C   0  0  0  0  0  0  0  0  0  0  0  0
  -20.5345   -6.9709    3.9712 C   0  0  0  0  0  0  0  0  0  0  0  0
  -13.1517   -6.9489    3.8638 N   0  0  0  0  0  0  0  0  0  0  0  0
  -11.9887   -6.2237    5.6246 N   0  0  0  0  0  0  0  0  0  0  0  0
  -19.9244   -8.1810    1.2825 C   0  0  0  0  0  0  0  0  0  0  0  0
  1  2  1  0
  1  3  2  0
  3  4  1  0
  3  5  1  0
  2  6  1  0
  4  7  2  0
  2  8  2  0
  7  8  1  0
  4  9  1  0
  5 10  2  0
  9 11  1  0
  6 12  1  0
  9 13  2  0
 10 13  1  0
 12 14  2  0
 12 15  1  0
 11 16  1  0
M  END
>  <ID>  (1) 
conformer_0

$$$$
