
     RDKit          3D

 13 13  0  0  0  0  0  0  0  0999 V2000
  -15.4886   -6.6055    5.4197 C   0  0  0  0  0  0  0  0  0  0  0  0
  -14.5124   -6.0947    4.8797 C   0  0  0  0  0  0  0  0  0  0  0  0
  -13.2011   -6.2653    5.3884 N   0  0  0  0  0  0  0  0  0  0  0  0
  -12.2058   -6.7024    4.5961 C   0  0  0  0  0  0  0  0  0  0  0  0
  -14.6659   -5.7087    3.7945 O   0  0  0  0  0  0  0  0  0  0  0  0
  -16.8703   -6.6214    4.8307 C   0  0  0  0  0  0  0  0  0  0  0  0
  -17.2663   -7.1409    3.8921 C   0  0  0  0  0  0  0  0  0  0  0  0
  -11.1020   -6.7553    4.9778 O   0  0  0  0  0  0  0  0  0  0  0  0
  -18.0198   -6.1598    5.7668 C   0  0  0  0  0  0  0  0  0  0  0  0
  -19.1974   -6.4271    5.1376 C   0  0  0  0  0  0  0  0  0  0  0  0
  -18.5118   -7.3660    3.3915 C   0  0  0  0  0  0  0  0  0  0  0  0
  -19.4720   -6.9012    4.1820 N   0  0  0  0  0  0  0  0  0  0  0  0
  -12.4494   -7.1176    3.3526 N   0  0  0  0  0  0  0  0  0  0  0  0
  1  2  1  0
  2  3  1  0
  3  4  1  0
  2  5  2  0
  1  6  1  0
  6  7  2  0
  4  8  2  0
  6  9  1  0
  9 10  2  0
  7 11  1  0
 10 12  1  0
 11 12  2  0
  4 13  1  0
M  END
>  <ID>  (1) 
conformer_0

$$$$
