
     RDKit          3D

 16 17  0  0  0  0  0  0  0  0999 V2000
  -15.0383   -5.2844    4.7826 C   0  0  0  0  0  0  0  0  0  0  0  0
  -16.2500   -5.2838    4.6747 C   0  0  0  0  0  0  0  0  0  0  0  0
  -14.1497   -6.3128    5.2147 C   0  0  0  0  0  0  0  0  0  0  0  0
  -14.7787   -7.5629    5.3739 N   0  0  0  0  0  0  0  0  0  0  0  0
  -16.9275   -6.5699    4.9210 C   0  0  0  0  0  0  0  0  0  0  0  0
  -12.7799   -6.2918    5.3184 N   0  0  0  0  0  0  0  0  0  0  0  0
  -18.3880   -6.7671    4.7386 C   0  0  0  0  0  0  0  0  0  0  0  0
  -19.2402   -6.1688    5.5010 C   0  0  0  0  0  0  0  0  0  0  0  0
  -19.0741   -7.3415    3.7733 C   0  0  0  0  0  0  0  0  0  0  0  0
  -20.3401   -7.6517    3.6431 C   0  0  0  0  0  0  0  0  0  0  0  0
  -11.9307   -6.6754    4.4062 C   0  0  0  0  0  0  0  0  0  0  0  0
  -16.1408   -7.6211    5.2560 C   0  0  0  0  0  0  0  0  0  0  0  0
  -20.5564   -6.3026    5.5718 C   0  0  0  0  0  0  0  0  0  0  0  0
  -10.7503   -6.8412    4.6832 O   0  0  0  0  0  0  0  0  0  0  0  0
  -12.2784   -6.9409    3.2351 O   0  0  0  0  0  0  0  0  0  0  0  0
  -21.1307   -7.0930    4.5507 C   0  0  0  0  0  0  0  0  0  0  0  0
  1  2  1  0
  1  3  2  0
  3  4  1  0
  2  5  2  0
  3  6  1  0
  5  7  1  0
  7  8  1  0
  7  9  2  0
  9 10  1  0
  6 11  1  0
  4 12  2  0
  5 12  1  0
  8 13  2  0
 11 14  1  0
 11 15  2  0
 10 16  2  0
 13 16  1  0
M  END
>  <ID>  (1) 
conformer_0

$$$$
