
     RDKit          3D

 15 17  0  0  0  0  0  0  0  0999 V2000
  -19.4654   -6.7261    5.5872 C   0  0  0  0  0  0  0  0  0  0  0  0
  -19.4293   -7.3286    4.5181 C   0  0  0  0  0  0  0  0  0  0  0  0
  -20.4279   -8.3167    4.0798 C   0  0  0  0  0  0  0  0  0  0  0  0
  -20.2437   -9.1480    2.9489 C   0  0  0  0  0  0  0  0  0  0  0  0
  -18.3103   -7.1225    3.6364 C   0  0  0  0  0  0  0  0  0  0  0  0
  -21.5952   -8.3439    4.7672 C   0  0  0  0  0  0  0  0  0  0  0  0
  -20.7930  -10.0769    2.7469 O   0  0  0  0  0  0  0  0  0  0  0  0
  -20.7061   -6.7361    6.3935 C   0  0  0  0  0  0  0  0  0  0  0  0
  -19.6136   -8.5714    1.8687 N   0  0  0  0  0  0  0  0  0  0  0  0
  -17.1902   -6.2549    3.9255 C   0  0  0  0  0  0  0  0  0  0  0  0
  -20.8464   -6.0866    7.5930 O   0  0  0  0  0  0  0  0  0  0  0  0
  -17.4026   -5.5619    5.2357 C   0  0  0  0  0  0  0  0  0  0  0  0
  -18.4255   -5.6882    6.0448 C   0  0  0  0  0  0  0  0  0  0  0  0
  -21.7714   -7.5695    6.0417 C   0  0  0  0  0  0  0  0  0  0  0  0
  -18.5343   -7.5705    2.3799 C   0  0  0  0  0  0  0  0  0  0  0  0
  1  2  2  0
  2  3  1  0
  3  4  1  0
  2  5  1  0
  3  6  2  0
  4  7  2  0
  1  8  1  0
  4  9  1  0
  5 10  2  0
  8 11  1  0
 10 12  1  0
  1 13  1  0
 12 13  2  0
  6 14  1  0
  8 14  2  0
  5 15  1  0
  9 15  2  0
M  END
>  <ID>  (1) 
conformer_0

$$$$
