
     RDKit          3D

 16 17  0  0  0  0  0  0  0  0999 V2000
  -15.2119   -5.1649    4.8701 C   0  0  0  0  0  0  0  0  0  0  0  0
  -16.4299   -5.1988    4.6543 C   0  0  0  0  0  0  0  0  0  0  0  0
  -16.9227   -6.3072    4.0093 C   0  0  0  0  0  0  0  0  0  0  0  0
  -16.1658   -7.4423    3.9533 C   0  0  0  0  0  0  0  0  0  0  0  0
  -18.4120   -6.3599    3.6736 C   0  0  0  0  0  0  0  0  0  0  0  0
  -14.2922   -6.2821    4.7832 C   0  0  0  0  0  0  0  0  0  0  0  0
  -19.3497   -5.9517    4.3899 N   0  0  0  0  0  0  0  0  0  0  0  0
  -20.5427   -5.7516    3.8443 C   0  0  0  0  0  0  0  0  0  0  0  0
  -21.5807   -5.1823    4.3493 O   0  0  0  0  0  0  0  0  0  0  0  0
  -14.8362   -7.3043    4.4159 C   0  0  0  0  0  0  0  0  0  0  0  0
  -18.6655   -6.8951    2.4895 N   0  0  0  0  0  0  0  0  0  0  0  0
  -20.5417   -6.2048    2.3663 C   0  0  0  0  0  0  0  0  0  0  0  0
  -19.6721   -6.7666    1.8358 N   0  0  0  0  0  0  0  0  0  0  0  0
  -12.9883   -6.1177    5.0927 N   0  0  0  0  0  0  0  0  0  0  0  0
  -12.0506   -6.7823    4.5108 O   0  0  0  0  0  0  0  0  0  0  0  0
  -21.7467   -5.7344    1.5636 C   0  0  0  0  0  0  0  0  0  0  0  0
  1  2  2  0
  2  3  1  0
  3  4  2  0
  3  5  1  0
  1  6  1  0
  5  7  1  0
  7  8  1  0
  8  9  2  0
  4 10  1  0
  6 10  2  0
  5 11  2  0
  8 12  1  0
 11 13  1  0
 12 13  2  0
  6 14  1  0
 14 15  1  0
 12 16  1  0
M  END
>  <ID>  (1) 
conformer_0

$$$$
