
     RDKit          3D

  6  5  0  0  0  0  0  0  0  0999 V2000
  -11.1758   -7.1128    4.0680 C   0  0  0  0  0  0  0  0  0  0  0  0
  -12.4144   -6.7107    4.4188 N   0  0  0  0  0  0  0  0  0  0  0  0
  -13.5498   -6.7091    3.9280 C   0  0  0  0  0  0  0  0  0  0  0  0
  -14.6893   -6.3202    4.8350 C   0  0  0  0  0  0  0  0  0  0  0  0
  -15.0596   -5.1055    4.8677 O   0  0  0  0  0  0  0  0  0  0  0  0
  -15.3412   -7.1963    5.5531 O   0  0  0  0  0  0  0  0  0  0  0  0
  1  2  1  0
  2  3  1  0
  3  4  1  0
  4  5  1  0
  4  6  2  0
M  END
>  <ID>  (1) 
conformer_0

$$$$
