
     RDKit          3D

 15 16  0  0  0  0  0  0  0  0999 V2000
  -15.2119   -5.1649    4.8701 C   0  0  0  0  0  0  0  0  0  0  0  0
  -16.4299   -5.1988    4.6543 C   0  0  0  0  0  0  0  0  0  0  0  0
  -14.3199   -6.3474    4.8122 C   0  0  0  0  0  0  0  0  0  0  0  0
  -17.0662   -6.5076    4.4161 C   0  0  0  0  0  0  0  0  0  0  0  0
  -18.5366   -6.6304    4.2198 C   0  0  0  0  0  0  0  0  0  0  0  0
  -14.9279   -7.5674    4.7304 N   0  0  0  0  0  0  0  0  0  0  0  0
  -19.3216   -6.4890    5.2320 N   0  0  0  0  0  0  0  0  0  0  0  0
  -12.9069   -6.3646    5.1489 C   0  0  0  0  0  0  0  0  0  0  0  0
  -18.9377   -5.7338    6.3970 C   0  0  0  0  0  0  0  0  0  0  0  0
  -12.1120   -6.7874    4.1840 N   0  0  0  0  0  0  0  0  0  0  0  0
  -12.6011   -5.9431    6.1427 O   0  0  0  0  0  0  0  0  0  0  0  0
  -16.3650   -7.6708    4.4988 C   0  0  0  0  0  0  0  0  0  0  0  0
  -20.5766   -6.8085    4.8737 C   0  0  0  0  0  0  0  0  0  0  0  0
  -19.1614   -7.2893    3.2597 C   0  0  0  0  0  0  0  0  0  0  0  0
  -20.4638   -7.3617    3.6238 N   0  0  0  0  0  0  0  0  0  0  0  0
  1  2  2  0
  1  3  1  0
  2  4  1  0
  4  5  1  0
  3  6  2  0
  5  7  1  0
  3  8  1  0
  7  9  1  0
  8 10  1  0
  8 11  2  0
  4 12  2  0
  6 12  1  0
  7 13  1  0
  5 14  2  0
 13 15  2  0
 14 15  1  0
M  END
>  <ID>  (1) 
conformer_0

$$$$
