
     RDKit          3D

 13 14  0  0  0  0  0  0  0  0999 V2000
  -15.0383   -5.2844    4.7826 C   0  0  0  0  0  0  0  0  0  0  0  0
  -14.2685   -6.3749    5.0284 C   0  0  0  0  0  0  0  0  0  0  0  0
  -16.3874   -5.4042    4.8021 C   0  0  0  0  0  0  0  0  0  0  0  0
  -14.7920   -7.4014    5.0797 N   0  0  0  0  0  0  0  0  0  0  0  0
  -17.4566   -4.7827    4.6122 C   0  0  0  0  0  0  0  0  0  0  0  0
  -12.7219   -6.3150    4.9297 C   0  0  0  0  0  0  0  0  0  0  0  0
  -16.2705   -6.9532    5.0177 C   0  0  0  0  0  0  0  0  0  0  0  0
  -12.0977   -6.8413    3.9176 N   0  0  0  0  0  0  0  0  0  0  0  0
  -12.2871   -5.8664    5.9189 O   0  0  0  0  0  0  0  0  0  0  0  0
  -18.6891   -5.4706    4.7481 C   0  0  0  0  0  0  0  0  0  0  0  0
  -18.7251   -6.9015    4.9388 C   0  0  0  0  0  0  0  0  0  0  0  0
  -17.3941   -7.5541    4.9531 C   0  0  0  0  0  0  0  0  0  0  0  0
  -19.5543   -7.4391    4.8883 O   0  0  0  0  0  0  0  0  0  0  0  0
  1  2  2  0
  1  3  1  0
  2  4  1  0
  3  5  1  0
  2  6  1  0
  3  7  1  0
  4  7  1  0
  6  8  1  0
  6  9  2  0
  5 10  2  0
 10 11  1  0
  7 12  2  0
 11 12  1  0
 11 13  2  0
M  END
>  <ID>  (1) 
conformer_0

$$$$
