
     RDKit          3D

 12 13  0  0  0  0  0  0  0  0999 V2000
  -19.1326   -7.1815    4.9124 C   0  0  0  0  0  0  0  0  0  0  0  0
  -18.3271   -6.4846    5.4754 C   0  0  0  0  0  0  0  0  0  0  0  0
  -16.9982   -6.2581    5.0054 C   0  0  0  0  0  0  0  0  0  0  0  0
  -20.4538   -7.5155    5.3384 C   0  0  0  0  0  0  0  0  0  0  0  0
  -20.8693   -6.7080    6.3516 O   0  0  0  0  0  0  0  0  0  0  0  0
  -16.7422   -6.8875    3.7463 C   0  0  0  0  0  0  0  0  0  0  0  0
  -21.2213   -8.3348    4.7700 O   0  0  0  0  0  0  0  0  0  0  0  0
  -15.9871   -5.3818    5.5629 C   0  0  0  0  0  0  0  0  0  0  0  0
  -18.6801   -7.9070    3.6771 C   0  0  0  0  0  0  0  0  0  0  0  0
  -15.3661   -6.5352    3.3590 N   0  0  0  0  0  0  0  0  0  0  0  0
  -17.4110   -7.6118    3.1993 C   0  0  0  0  0  0  0  0  0  0  0  0
  -15.1105   -5.3415    4.6233 C   0  0  0  0  0  0  0  0  0  0  0  0
  1  2  1  0
  2  3  2  0
  1  4  1  0
  4  5  1  0
  3  6  1  0
  4  7  2  0
  3  8  1  0
  1  9  2  0
  6 10  1  0
  6 11  2  0
  9 11  1  0
  8 12  2  0
 10 12  1  0
M  END
>  <ID>  (1) 
conformer_0

$$$$
