
     RDKit          3D

 12 13  0  0  0  0  0  0  0  0999 V2000
   14.3068   -1.2297   30.4224 O   0  0  0  0  0  0  0  0  0  0  0  0
   14.5725   -0.0099   30.2071 C   0  0  0  0  0  0  0  0  0  0  0  0
   14.0396    1.0371   31.0152 C   0  0  0  0  0  0  0  0  0  0  0  0
   14.3388    2.4440   30.8276 C   0  0  0  0  0  0  0  0  0  0  0  0
   13.4229    0.5946   32.1485 C   0  0  0  0  0  0  0  0  0  0  0  0
   13.7257    3.4387   31.5931 C   0  0  0  0  0  0  0  0  0  0  0  0
   15.4919    0.3647   29.0882 C   0  0  0  0  0  0  0  0  0  0  0  0
   14.9176    2.6086   29.6896 C   0  0  0  0  0  0  0  0  0  0  0  0
   12.4248    3.2573   32.0683 C   0  0  0  0  0  0  0  0  0  0  0  0
   15.6247    1.7595   28.9610 C   0  0  0  0  0  0  0  0  0  0  0  0
   12.4999    1.8206   32.6631 N   0  0  0  0  0  0  0  0  0  0  0  0
   11.3893    3.2041   31.1466 C   0  0  0  0  0  0  0  0  0  0  0  0
  1  2  1  0
  2  3  2  0
  3  4  1  0
  3  5  1  0
  4  6  1  0
  2  7  1  0
  4  8  2  0
  6  9  1  0
  7 10  2  0
  8 10  1  0
  5 11  2  0
  9 11  1  0
  9 12  1  0
M  END
>  <ID>  (1) 
conformer_0

$$$$
