
     RDKit          3D

 20 23  0  0  0  0  0  0  0  0999 V2000
   14.9481   -0.3148   29.8155 C   0  0  0  0  0  0  0  0  0  0  0  0
   14.0587   -0.8651   30.7182 C   0  0  0  0  0  0  0  0  0  0  0  0
   13.4131    0.3205   31.4429 C   0  0  0  0  0  0  0  0  0  0  0  0
   13.8970   -2.0726   31.1671 N   0  0  0  0  0  0  0  0  0  0  0  0
   12.9981   -2.2836   32.1101 C   0  0  0  0  0  0  0  0  0  0  0  0
   12.5381   -3.6008   32.5466 C   0  0  0  0  0  0  0  0  0  0  0  0
   13.7997    1.5747   31.1846 C   0  0  0  0  0  0  0  0  0  0  0  0
   12.4640   -3.7156   33.8786 O   0  0  0  0  0  0  0  0  0  0  0  0
   13.1282    2.6673   31.9065 C   0  0  0  0  0  0  0  0  0  0  0  0
   13.4592    3.8832   31.8093 C   0  0  0  0  0  0  0  0  0  0  0  0
   14.7360    1.8527   30.2434 C   0  0  0  0  0  0  0  0  0  0  0  0
   15.3387    0.8949   29.5315 C   0  0  0  0  0  0  0  0  0  0  0  0
   12.6016    4.8963   32.5998 C   0  0  0  0  0  0  0  0  0  0  0  0
   11.6990    2.3708   32.4490 C   0  0  0  0  0  0  0  0  0  0  0  0
   10.9824    3.2895   33.1042 C   0  0  0  0  0  0  0  0  0  0  0  0
   11.4743    4.5900   33.1295 C   0  0  0  0  0  0  0  0  0  0  0  0
   12.1832   -0.9927   32.6053 C   0  0  0  0  0  0  0  0  0  0  0  0
   12.5169    0.0155   32.3802 C   0  0  0  0  0  0  0  0  0  0  0  0
   11.4155    0.9515   32.7201 N   0  0  0  0  0  0  0  0  0  0  0  0
   11.2348   -4.0117   31.8456 O   0  0  0  0  0  0  0  0  0  0  0  0
  1  2  2  0
  2  3  1  0
  2  4  1  0
  4  5  2  0
  5  6  1  0
  3  7  2  0
  6  8  1  0
  7  9  1  0
  9 10  2  0
  7 11  1  0
  1 12  1  0
 11 12  2  0
 10 13  1  0
  9 14  1  0
 14 15  2  0
 13 16  2  0
 15 16  1  0
  5 17  1  0
  3 18  1  0
 17 18  2  0
 14 19  1  0
 18 19  1  0
  6 20  1  0
M  END
>  <ID>  (1) 
conformer_0

$$$$
