
     RDKit          3D

 19 21  0  0  0  0  0  0  0  0999 V2000
   14.3068   -1.2297   30.4224 O   0  0  0  0  0  0  0  0  0  0  0  0
   13.5726   -1.1192   31.4738 C   0  0  0  0  0  0  0  0  0  0  0  0
   13.1520   -2.4161   32.0335 C   0  0  0  0  0  0  0  0  0  0  0  0
   14.9070    0.0989   30.0670 C   0  0  0  0  0  0  0  0  0  0  0  0
   13.0751   -0.0268   32.0235 C   0  0  0  0  0  0  0  0  0  0  0  0
   12.1921   -2.3817   33.1020 C   0  0  0  0  0  0  0  0  0  0  0  0
   14.4428    1.1605   30.2406 C   0  0  0  0  0  0  0  0  0  0  0  0
   11.6624   -1.2624   33.2587 C   0  0  0  0  0  0  0  0  0  0  0  0
   11.4104   -3.6632   33.2861 C   0  0  0  0  0  0  0  0  0  0  0  0
   14.1301   -3.2100   32.3322 O   0  0  0  0  0  0  0  0  0  0  0  0
   10.5308   -1.2074   34.1857 O   0  0  0  0  0  0  0  0  0  0  0  0
   13.6122    1.2272   31.4645 C   0  0  0  0  0  0  0  0  0  0  0  0
   11.0300   -4.1752   32.0848 O   0  0  0  0  0  0  0  0  0  0  0  0
   13.0390    2.3353   31.9608 N   0  0  0  0  0  0  0  0  0  0  0  0
   12.2382    0.0622   33.0893 C   0  0  0  0  0  0  0  0  0  0  0  0
   14.9828    2.3439   29.8476 F   0  0  0  0  0  0  0  0  0  0  0  0
   12.0813    2.2765   32.7029 C   0  0  0  0  0  0  0  0  0  0  0  0
   11.6143    1.2401   33.3833 C   0  0  0  0  0  0  0  0  0  0  0  0
   11.6172    3.3685   33.0326 O   0  0  0  0  0  0  0  0  0  0  0  0
  1  2  1  0
  2  3  1  0
  1  4  1  0
  2  5  2  0
  3  6  1  0
  4  7  2  0
  6  8  1  0
  6  9  1  0
  3 10  1  0
  8 11  1  0
  5 12  1  0
  7 12  1  0
  9 13  1  0
 12 14  2  0
  5 15  1  0
  8 15  1  0
  7 16  1  0
 14 17  1  0
 15 18  1  0
 17 18  1  0
 17 19  2  0
M  END
>  <ID>  (1) 
conformer_0

$$$$
