
     RDKit          3D

 15 15  0  0  0  0  0  0  0  0999 V2000
   13.8909   -0.9600   30.6971 C   0  0  0  0  0  0  0  0  0  0  0  0
   14.3429    0.2114   30.3848 C   0  0  0  0  0  0  0  0  0  0  0  0
   14.0715    1.3167   31.2726 C   0  0  0  0  0  0  0  0  0  0  0  0
   13.2048    1.2034   32.3268 C   0  0  0  0  0  0  0  0  0  0  0  0
   13.0520   -1.2072   31.8136 C   0  0  0  0  0  0  0  0  0  0  0  0
   12.4334   -2.4849   32.1442 C   0  0  0  0  0  0  0  0  0  0  0  0
   14.6925    2.6973   30.7766 C   0  0  0  0  0  0  0  0  0  0  0  0
   12.4260   -3.0530   33.2468 O   0  0  0  0  0  0  0  0  0  0  0  0
   15.3258    0.4323   29.2204 C   0  0  0  0  0  0  0  0  0  0  0  0
   12.8276    2.3022   33.1607 C   0  0  0  0  0  0  0  0  0  0  0  0
   12.7361   -0.0797   32.5933 C   0  0  0  0  0  0  0  0  0  0  0  0
   11.5774    2.7484   33.0408 C   0  0  0  0  0  0  0  0  0  0  0  0
   11.2055    3.7196   32.2468 O   0  0  0  0  0  0  0  0  0  0  0  0
   10.6157    1.9803   33.5424 O   0  0  0  0  0  0  0  0  0  0  0  0
   12.0874   -3.2686   31.1485 O   0  0  0  0  0  0  0  0  0  0  0  0
  1  2  2  0
  2  3  1  0
  3  4  2  0
  1  5  1  0
  5  6  1  0
  3  7  1  0
  6  8  1  0
  2  9  1  0
  4 10  1  0
  4 11  1  0
  5 11  2  0
 10 12  1  0
 12 13  2  0
 12 14  1  0
  6 15  2  0
M  END
>  <ID>  (1) 
conformer_0

$$$$
