
     RDKit          3D

 19 22  0  0  0  0  0  0  0  0999 V2000
   13.9874   -2.4049   30.8515 O   0  0  0  0  0  0  0  0  0  0  0  0
   13.2735   -1.6145   31.7831 C   0  0  0  0  0  0  0  0  0  0  0  0
   13.2367   -0.3271   31.7045 C   0  0  0  0  0  0  0  0  0  0  0  0
   12.2067    0.3061   32.4502 C   0  0  0  0  0  0  0  0  0  0  0  0
   14.1478    0.4403   31.0747 C   0  0  0  0  0  0  0  0  0  0  0  0
   14.0808    1.8069   31.2025 C   0  0  0  0  0  0  0  0  0  0  0  0
   15.1154   -0.0045   30.2352 C   0  0  0  0  0  0  0  0  0  0  0  0
   11.0720   -0.4435   32.8866 C   0  0  0  0  0  0  0  0  0  0  0  0
   13.2278    2.5596   32.0267 C   0  0  0  0  0  0  0  0  0  0  0  0
   12.0886    1.7601   32.5560 C   0  0  0  0  0  0  0  0  0  0  0  0
   10.9795    2.2922   33.0142 C   0  0  0  0  0  0  0  0  0  0  0  0
   15.0823    2.3969   30.3555 N   0  0  0  0  0  0  0  0  0  0  0  0
   10.1557    0.1825   33.6470 N   0  0  0  0  0  0  0  0  0  0  0  0
   11.1889   -1.8631   33.1697 C   0  0  0  0  0  0  0  0  0  0  0  0
   10.0240    1.4855   33.6907 C   0  0  0  0  0  0  0  0  0  0  0  0
   12.2437   -2.4981   32.4116 C   0  0  0  0  0  0  0  0  0  0  0  0
   15.6517    1.2877   29.7127 C   0  0  0  0  0  0  0  0  0  0  0  0
   12.3007   -3.8671   32.3453 O   0  0  0  0  0  0  0  0  0  0  0  0
   10.2116   -2.5696   33.7955 O   0  0  0  0  0  0  0  0  0  0  0  0
  1  2  1  0
  2  3  2  0
  3  4  1  0
  3  5  1  0
  5  6  1  0
  5  7  2  0
  4  8  2  0
  6  9  1  0
  4 10  1  0
  9 10  1  0
 10 11  2  0
  6 12  2  0
  8 13  1  0
  8 14  1  0
 11 15  1  0
 13 15  2  0
  2 16  1  0
 14 16  2  0
  7 17  1  0
 12 17  1  0
 16 18  1  0
 14 19  1  0
M  END
>  <ID>  (1) 
conformer_0

$$$$
