
     RDKit          3D

 19 21  0  0  0  0  0  0  0  0999 V2000
   14.9481   -0.3148   29.8155 C   0  0  0  0  0  0  0  0  0  0  0  0
   14.2237    0.3595   30.7039 C   0  0  0  0  0  0  0  0  0  0  0  0
   13.4276   -0.2186   31.6338 C   0  0  0  0  0  0  0  0  0  0  0  0
   13.3741   -1.7399   31.7505 C   0  0  0  0  0  0  0  0  0  0  0  0
   14.5078    1.7291   30.7892 C   0  0  0  0  0  0  0  0  0  0  0  0
   13.8177    2.4858   31.8123 C   0  0  0  0  0  0  0  0  0  0  0  0
   14.2983   -2.4679   31.4459 O   0  0  0  0  0  0  0  0  0  0  0  0
   12.7774    0.5013   32.5989 C   0  0  0  0  0  0  0  0  0  0  0  0
   12.4072   -2.2641   32.6156 N   0  0  0  0  0  0  0  0  0  0  0  0
   12.1708   -3.7316   32.6966 C   0  0  0  0  0  0  0  0  0  0  0  0
   11.2101   -4.1765   31.6684 O   0  0  0  0  0  0  0  0  0  0  0  0
   11.2441   -3.7906   33.9526 C   0  0  0  0  0  0  0  0  0  0  0  0
   11.7479   -0.0318   33.4593 O   0  0  0  0  0  0  0  0  0  0  0  0
   12.9454    1.8880   32.6305 C   0  0  0  0  0  0  0  0  0  0  0  0
    9.7861   -3.6493   33.5279 O   0  0  0  0  0  0  0  0  0  0  0  0
   11.4745   -2.3183   34.6188 C   0  0  0  0  0  0  0  0  0  0  0  0
   11.4286   -1.4255   33.1780 C   0  0  0  0  0  0  0  0  0  0  0  0
   10.2944   -1.8455   35.3047 O   0  0  0  0  0  0  0  0  0  0  0  0
   15.4094    2.4218   29.7733 C   0  0  0  0  0  0  0  0  0  0  0  0
  1  2  1  0
  2  3  1  0
  3  4  1  0
  2  5  2  0
  5  6  1  0
  4  7  2  0
  3  8  2  0
  4  9  1  0
  9 10  1  0
 10 11  1  0
 10 12  1  0
  8 13  1  0
  6 14  2  0
  8 14  1  0
 12 15  1  0
 12 16  1  0
  9 17  1  0
 13 17  1  0
 16 17  1  0
 16 18  1  0
  5 19  1  0
M  END
>  <ID>  (1) 
conformer_0

$$$$
