
     RDKit          3D

 16 17  0  0  0  0  0  0  0  0999 V2000
   14.0264   -0.3403   30.7143 C   0  0  0  0  0  0  0  0  0  0  0  0
   14.5276    0.6348   30.2533 C   0  0  0  0  0  0  0  0  0  0  0  0
   13.2156   -0.2036   31.7852 C   0  0  0  0  0  0  0  0  0  0  0  0
   12.4662   -1.3060   32.4572 N   0  0  0  0  0  0  0  0  0  0  0  0
   14.4968    1.8955   30.6805 C   0  0  0  0  0  0  0  0  0  0  0  0
   13.6663    2.1176   31.7257 C   0  0  0  0  0  0  0  0  0  0  0  0
   11.2802   -1.3042   32.6685 C   0  0  0  0  0  0  0  0  0  0  0  0
   13.4879    3.3963   32.3444 C   0  0  0  0  0  0  0  0  0  0  0  0
   12.9760    1.0617   32.3462 C   0  0  0  0  0  0  0  0  0  0  0  0
   12.5267    3.5627   33.1372 O   0  0  0  0  0  0  0  0  0  0  0  0
   13.1793   -2.3760   33.0642 C   0  0  0  0  0  0  0  0  0  0  0  0
   11.0360   -2.6221   33.2779 C   0  0  0  0  0  0  0  0  0  0  0  0
   10.4231   -0.3329   32.8210 O   0  0  0  0  0  0  0  0  0  0  0  0
   15.6531    0.4754   28.8926 Cl  0  0  0  0  0  0  0  0  0  0  0  0
   12.2315   -3.3350   33.2490 O   0  0  0  0  0  0  0  0  0  0  0  0
   10.0585   -3.5426   32.4275 O   0  0  0  0  0  0  0  0  0  0  0  0
  1  2  1  0
  1  3  2  0
  3  4  1  0
  2  5  2  0
  5  6  1  0
  4  7  1  0
  6  8  1  0
  3  9  1  0
  6  9  2  0
  8 10  1  0
  4 11  1  0
  7 12  1  0
  7 13  2  0
  2 14  1  0
 11 15  1  0
 12 15  1  0
 12 16  1  0
M  END
>  <ID>  (1) 
conformer_0

$$$$
