
     RDKit          3D

 14 15  0  0  0  0  0  0  0  0999 V2000
   13.4653   -2.6345   31.1162 O   0  0  0  0  0  0  0  0  0  0  0  0
   12.6885   -2.1434   32.1911 C   0  0  0  0  0  0  0  0  0  0  0  0
   12.6873   -0.8426   32.4640 C   0  0  0  0  0  0  0  0  0  0  0  0
   11.7409   -0.1514   32.7472 C   0  0  0  0  0  0  0  0  0  0  0  0
   13.9029   -0.1177   32.1247 C   0  0  0  0  0  0  0  0  0  0  0  0
   11.7184   -3.0987   32.6317 C   0  0  0  0  0  0  0  0  0  0  0  0
   10.4168   -0.7896   33.0863 O   0  0  0  0  0  0  0  0  0  0  0  0
   13.8682    1.2288   32.1287 C   0  0  0  0  0  0  0  0  0  0  0  0
   10.5409   -2.1868   33.3747 C   0  0  0  0  0  0  0  0  0  0  0  0
   11.5720    1.2077   32.8288 C   0  0  0  0  0  0  0  0  0  0  0  0
   10.9997   -3.9459   31.7978 O   0  0  0  0  0  0  0  0  0  0  0  0
   10.7363   -2.5355   34.7987 O   0  0  0  0  0  0  0  0  0  0  0  0
   10.4511    1.9027   33.2781 O   0  0  0  0  0  0  0  0  0  0  0  0
   12.7460    2.0052   32.3790 C   0  0  0  0  0  0  0  0  0  0  0  0
  1  2  1  0
  2  3  1  0
  3  4  2  0
  3  5  1  0
  2  6  1  0
  4  7  1  0
  5  8  2  0
  6  9  1  0
  7  9  1  0
  4 10  1  0
  6 11  1  0
  9 12  1  0
 10 13  1  0
  8 14  1  0
 10 14  2  0
M  END
>  <ID>  (1) 
conformer_0

$$$$
