
     RDKit          3D

 20 23  0  0  0  0  0  0  0  0999 V2000
   14.9481   -0.3148   29.8155 C   0  0  0  0  0  0  0  0  0  0  0  0
   14.0587   -0.8651   30.7182 C   0  0  0  0  0  0  0  0  0  0  0  0
   13.4131    0.3205   31.4429 C   0  0  0  0  0  0  0  0  0  0  0  0
   13.8970   -2.0726   31.1671 N   0  0  0  0  0  0  0  0  0  0  0  0
   12.9981   -2.2836   32.1101 C   0  0  0  0  0  0  0  0  0  0  0  0
   12.5381   -3.6008   32.5466 C   0  0  0  0  0  0  0  0  0  0  0  0
   13.7997    1.5747   31.1846 C   0  0  0  0  0  0  0  0  0  0  0  0
   12.4640   -3.7156   33.8786 O   0  0  0  0  0  0  0  0  0  0  0  0
   13.1282    2.6673   31.9065 C   0  0  0  0  0  0  0  0  0  0  0  0
   13.4592    3.8832   31.8093 C   0  0  0  0  0  0  0  0  0  0  0  0
   14.8331    1.9338   30.3325 C   0  0  0  0  0  0  0  0  0  0  0  0
   12.0513    2.2037   32.7646 C   0  0  0  0  0  0  0  0  0  0  0  0
   11.7177   -4.3091   31.7910 O   0  0  0  0  0  0  0  0  0  0  0  0
   12.7999    4.9153   32.5714 C   0  0  0  0  0  0  0  0  0  0  0  0
   11.5804    0.7982   32.7915 C   0  0  0  0  0  0  0  0  0  0  0  0
   11.0602    3.1921   33.2262 C   0  0  0  0  0  0  0  0  0  0  0  0
   12.4042   -0.0993   32.2347 C   0  0  0  0  0  0  0  0  0  0  0  0
   11.5205    4.5401   33.2648 C   0  0  0  0  0  0  0  0  0  0  0  0
   15.3618    0.9462   29.5760 C   0  0  0  0  0  0  0  0  0  0  0  0
   12.0253   -1.2863   32.6223 N   0  0  0  0  0  0  0  0  0  0  0  0
  1  2  2  0
  2  3  1  0
  2  4  1  0
  4  5  2  0
  5  6  1  0
  3  7  2  0
  6  8  1  0
  7  9  1  0
  9 10  2  0
  7 11  1  0
  9 12  1  0
  6 13  2  0
 10 14  1  0
 12 15  1  0
 12 16  2  0
  3 17  1  0
 15 17  2  0
 14 18  2  0
 16 18  1  0
  1 19  1  0
 11 19  2  0
  5 20  1  0
 17 20  1  0
M  END
>  <ID>  (1) 
conformer_0

$$$$
