
     RDKit          3D

 19 20  0  0  0  0  0  0  0  0999 V2000
   15.2424    1.0094   29.6190 C   0  0  0  0  0  0  0  0  0  0  0  0
   14.8476   -0.2168   29.8103 C   0  0  0  0  0  0  0  0  0  0  0  0
   13.9629   -0.3251   30.9588 C   0  0  0  0  0  0  0  0  0  0  0  0
   13.6854    1.0207   31.4904 C   0  0  0  0  0  0  0  0  0  0  0  0
   12.7477    1.1989   32.5737 N   0  0  0  0  0  0  0  0  0  0  0  0
   13.4062   -1.3912   31.5865 C   0  0  0  0  0  0  0  0  0  0  0  0
   12.3537   -1.3749   32.2619 O   0  0  0  0  0  0  0  0  0  0  0  0
   11.8374   -2.6389   32.7862 C   0  0  0  0  0  0  0  0  0  0  0  0
   12.6805   -3.6435   32.7000 O   0  0  0  0  0  0  0  0  0  0  0  0
   12.1189    2.4607   32.6548 C   0  0  0  0  0  0  0  0  0  0  0  0
   11.5526    2.9484   31.5314 C   0  0  0  0  0  0  0  0  0  0  0  0
   14.4114    2.1269   30.7692 S   0  0  0  0  0  0  0  0  0  0  0  0
   10.6925    4.1154   31.9024 C   0  0  0  0  0  0  0  0  0  0  0  0
   12.0611    3.1373   33.9233 C   0  0  0  0  0  0  0  0  0  0  0  0
   10.5692   -2.7167   33.1899 C   0  0  0  0  0  0  0  0  0  0  0  0
   11.2916    4.2042   34.0835 C   0  0  0  0  0  0  0  0  0  0  0  0
   10.0681   -3.9154   33.4517 O   0  0  0  0  0  0  0  0  0  0  0  0
   10.6533    4.7183   33.0430 C   0  0  0  0  0  0  0  0  0  0  0  0
   13.8552   -2.6308   31.5091 O   0  0  0  0  0  0  0  0  0  0  0  0
  1  2  2  0
  2  3  1  0
  3  4  2  0
  4  5  1  0
  3  6  1  0
  6  7  1  0
  7  8  1  0
  8  9  1  0
  5 10  1  0
 10 11  2  0
  1 12  1  0
  4 12  1  0
 11 13  1  0
 10 14  1  0
  8 15  2  3
 14 16  2  0
 15 17  1  0
 13 18  2  0
 16 18  1  0
  6 19  2  0
M  END
>  <ID>  (1) 
conformer_0

$$$$
