
     RDKit          3D

 15 16  0  0  0  0  0  0  0  0999 V2000
   14.7820    0.0455   30.1789 C   0  0  0  0  0  0  0  0  0  0  0  0
   13.8702   -0.1304   31.0386 C   0  0  0  0  0  0  0  0  0  0  0  0
   13.4598   -1.4848   31.5729 C   0  0  0  0  0  0  0  0  0  0  0  0
   15.1127    1.1907   29.7393 C   0  0  0  0  0  0  0  0  0  0  0  0
   14.5410    2.2869   30.4004 C   0  0  0  0  0  0  0  0  0  0  0  0
   12.5034   -1.5860   32.4715 C   0  0  0  0  0  0  0  0  0  0  0  0
   11.1367   -1.2740   32.1143 O   0  0  0  0  0  0  0  0  0  0  0  0
   13.2613    0.9110   31.6478 C   0  0  0  0  0  0  0  0  0  0  0  0
   14.1517   -2.5501   31.4384 N   0  0  0  0  0  0  0  0  0  0  0  0
   12.5911   -2.9722   32.9939 C   0  0  0  0  0  0  0  0  0  0  0  0
   13.6234    2.2442   31.2978 C   0  0  0  0  0  0  0  0  0  0  0  0
   13.6777   -3.5875   32.1931 O   0  0  0  0  0  0  0  0  0  0  0  0
   12.7676   -3.0018   34.4133 O   0  0  0  0  0  0  0  0  0  0  0  0
   12.9104    3.3625   31.9610 C   0  0  0  0  0  0  0  0  0  0  0  0
   12.3137    3.1843   32.9862 O   0  0  0  0  0  0  0  0  0  0  0  0
  1  2  1  0
  2  3  1  0
  1  4  2  0
  4  5  1  0
  3  6  1  0
  6  7  1  0
  2  8  2  0
  3  9  2  0
  6 10  1  0
  5 11  2  0
  8 11  1  0
  9 12  1  0
 10 12  1  0
 10 13  1  0
 11 14  1  0
 14 15  1  0
M  END
>  <ID>  (1) 
conformer_0

$$$$
