
     RDKit          3D

 12 13  0  0  0  0  0  0  0  0999 V2000
   15.4265    1.6399   29.6209 C   0  0  0  0  0  0  0  0  0  0  0  0
   14.5334    0.8276   30.2931 C   0  0  0  0  0  0  0  0  0  0  0  0
   13.9183    1.3612   31.2296 C   0  0  0  0  0  0  0  0  0  0  0  0
   12.9392    0.6519   32.0759 C   0  0  0  0  0  0  0  0  0  0  0  0
   11.8920    1.2243   32.6387 C   0  0  0  0  0  0  0  0  0  0  0  0
   14.6064   -0.5347   30.2417 N   0  0  0  0  0  0  0  0  0  0  0  0
   11.7061    2.5058   32.6688 C   0  0  0  0  0  0  0  0  0  0  0  0
   13.6177    2.8450   31.3750 C   0  0  0  0  0  0  0  0  0  0  0  0
   13.9780   -1.2856   31.0908 C   0  0  0  0  0  0  0  0  0  0  0  0
   14.0167   -2.6586   31.1622 N   0  0  0  0  0  0  0  0  0  0  0  0
   13.1188   -0.7318   32.0606 N   0  0  0  0  0  0  0  0  0  0  0  0
   12.5935    3.3261   32.0560 C   0  0  0  0  0  0  0  0  0  0  0  0
  1  2  1  0
  2  3  2  0
  3  4  1  0
  4  5  1  0
  2  6  1  0
  5  7  2  0
  3  8  1  0
  6  9  2  0
  9 10  1  0
  4 11  2  0
  9 11  1  0
  7 12  1  0
  8 12  2  0
M  END
>  <ID>  (1) 
conformer_0

$$$$
