
     RDKit          3D

 13 14  0  0  0  0  0  0  0  0999 V2000
   13.8909   -0.9600   30.6971 C   0  0  0  0  0  0  0  0  0  0  0  0
   13.2075   -0.9866   31.6611 N   0  0  0  0  0  0  0  0  0  0  0  0
   14.3740    0.4109   30.3354 C   0  0  0  0  0  0  0  0  0  0  0  0
   14.6035   -2.0096   30.5475 O   0  0  0  0  0  0  0  0  0  0  0  0
   12.7720   -2.3015   32.2732 C   0  0  0  0  0  0  0  0  0  0  0  0
   13.9444    1.4084   30.9690 C   0  0  0  0  0  0  0  0  0  0  0  0
   12.9196    1.3736   31.9394 C   0  0  0  0  0  0  0  0  0  0  0  0
   15.3770    0.4930   29.3654 C   0  0  0  0  0  0  0  0  0  0  0  0
   12.5108    0.1452   32.3528 C   0  0  0  0  0  0  0  0  0  0  0  0
   14.5309    2.6646   30.3464 C   0  0  0  0  0  0  0  0  0  0  0  0
   12.9765   -2.4748   33.6305 C   0  0  0  0  0  0  0  0  0  0  0  0
   11.9060   -3.1421   31.7312 O   0  0  0  0  0  0  0  0  0  0  0  0
   15.4864    2.1581   29.3693 C   0  0  0  0  0  0  0  0  0  0  0  0
  1  2  1  0
  1  3  1  0
  1  4  2  0
  2  5  1  0
  3  6  1  0
  6  7  2  0
  3  8  2  0
  2  9  1  0
  7  9  1  0
  6 10  1  0
  5 11  1  0
  5 12  2  0
  8 13  1  0
 10 13  2  0
M  END
>  <ID>  (1) 
conformer_0

$$$$
