
     RDKit          3D

 19 20  0  0  0  0  0  0  0  0999 V2000
   13.8909   -0.9600   30.6971 C   0  0  0  0  0  0  0  0  0  0  0  0
   14.3429    0.2114   30.3848 C   0  0  0  0  0  0  0  0  0  0  0  0
   14.0715    1.3167   31.2726 C   0  0  0  0  0  0  0  0  0  0  0  0
   13.2048    1.2034   32.3268 C   0  0  0  0  0  0  0  0  0  0  0  0
   13.0520   -1.2072   31.8136 C   0  0  0  0  0  0  0  0  0  0  0  0
   12.4334   -2.4849   32.1442 C   0  0  0  0  0  0  0  0  0  0  0  0
   12.5311   -3.4079   31.6003 O   0  0  0  0  0  0  0  0  0  0  0  0
   11.3127   -2.3578   33.0082 N   0  0  0  0  0  0  0  0  0  0  0  0
   14.6075    2.7603   30.8290 C   0  0  0  0  0  0  0  0  0  0  0  0
   12.8442    2.3366   33.1579 C   0  0  0  0  0  0  0  0  0  0  0  0
   11.0210   -1.2126   33.7050 C   0  0  0  0  0  0  0  0  0  0  0  0
   11.6094    2.6761   33.3054 N   0  0  0  0  0  0  0  0  0  0  0  0
   11.0593    3.3430   34.3676 O   0  0  0  0  0  0  0  0  0  0  0  0
   12.6820   -0.1221   32.6300 C   0  0  0  0  0  0  0  0  0  0  0  0
    9.9580   -1.3381   34.7190 O   0  0  0  0  0  0  0  0  0  0  0  0
    9.6963   -0.2761   35.2383 C   0  0  0  0  0  0  0  0  0  0  0  0
   15.3595    0.4696   29.2409 C   0  0  0  0  0  0  0  0  0  0  0  0
   10.6011   -3.6540   33.1510 C   0  0  0  0  0  0  0  0  0  0  0  0
   11.6999   -0.0565   33.5230 C   0  0  0  0  0  0  0  0  0  0  0  0
  1  2  2  0
  2  3  1  0
  3  4  2  0
  1  5  1  0
  5  6  1  0
  6  7  2  0
  6  8  1  0
  3  9  1  0
  4 10  1  0
  8 11  1  0
 10 12  2  3
 12 13  1  0
  4 14  1  0
  5 14  2  0
 11 15  1  0
 15 16  1  0
  2 17  1  0
  8 18  1  0
 11 19  2  0
 14 19  1  0
M  END
>  <ID>  (1) 
conformer_0

$$$$
