
     RDKit          3D

 20 22  0  0  0  0  0  0  0  0999 V2000
   14.9481   -0.3148   29.8155 C   0  0  0  0  0  0  0  0  0  0  0  0
   14.0587   -0.8651   30.7182 C   0  0  0  0  0  0  0  0  0  0  0  0
   13.4131    0.3205   31.4429 C   0  0  0  0  0  0  0  0  0  0  0  0
   13.8970   -2.0726   31.1671 N   0  0  0  0  0  0  0  0  0  0  0  0
   12.9981   -2.2836   32.1101 C   0  0  0  0  0  0  0  0  0  0  0  0
   12.5381   -3.6008   32.5466 C   0  0  0  0  0  0  0  0  0  0  0  0
   13.7997    1.5747   31.1846 C   0  0  0  0  0  0  0  0  0  0  0  0
   12.4640   -3.7156   33.8786 O   0  0  0  0  0  0  0  0  0  0  0  0
   13.1282    2.6673   31.9065 C   0  0  0  0  0  0  0  0  0  0  0  0
   13.4592    3.8832   31.8093 C   0  0  0  0  0  0  0  0  0  0  0  0
   11.2079   -3.9369   31.9280 C   0  0  0  0  0  0  0  0  0  0  0  0
   10.3322   -2.9399   31.9428 O   0  0  0  0  0  0  0  0  0  0  0  0
   11.7443    2.2225   32.3233 C   0  0  0  0  0  0  0  0  0  0  0  0
   12.4637    4.7561   32.5789 C   0  0  0  0  0  0  0  0  0  0  0  0
   15.2875    0.9819   29.5518 C   0  0  0  0  0  0  0  0  0  0  0  0
   10.8527    3.0894   32.9376 C   0  0  0  0  0  0  0  0  0  0  0  0
   11.2911    4.4787   33.0672 C   0  0  0  0  0  0  0  0  0  0  0  0
   14.6672    1.9866   30.2526 C   0  0  0  0  0  0  0  0  0  0  0  0
   10.8219   -5.0764   31.7563 O   0  0  0  0  0  0  0  0  0  0  0  0
   12.6045   -0.4563   32.4858 S   0  0  0  0  0  0  0  0  0  0  0  0
  1  2  2  0
  2  3  1  0
  2  4  1  0
  4  5  2  0
  5  6  1  0
  3  7  2  0
  6  8  1  0
  7  9  1  0
  9 10  2  0
  6 11  1  0
 11 12  2  0
  9 13  1  0
 10 14  1  0
  1 15  1  0
 13 16  2  0
 14 17  2  0
 16 17  1  0
  7 18  1  0
 15 18  2  0
 11 19  1  0
  3 20  1  0
  5 20  1  0
M  END
>  <ID>  (1) 
conformer_0

$$$$
