
     RDKit          3D

 13 15  0  0  0  0  0  0  0  0999 V2000
   14.3325   -1.7294   30.5587 O   0  0  0  0  0  0  0  0  0  0  0  0
   14.2645   -0.4457   30.5628 C   0  0  0  0  0  0  0  0  0  0  0  0
   13.6298    0.1352   31.5787 C   0  0  0  0  0  0  0  0  0  0  0  0
   13.5857   -2.1902   31.5956 C   0  0  0  0  0  0  0  0  0  0  0  0
   13.0587   -1.0550   32.1828 N   0  0  0  0  0  0  0  0  0  0  0  0
   12.8562   -3.3549   31.7008 C   0  0  0  0  0  0  0  0  0  0  0  0
   11.8565   -3.0363   32.6656 C   0  0  0  0  0  0  0  0  0  0  0  0
   15.0199    0.5128   29.5873 C   0  0  0  0  0  0  0  0  0  0  0  0
   14.9831    1.8135   29.7646 C   0  0  0  0  0  0  0  0  0  0  0  0
   13.5650    1.5279   31.7158 C   0  0  0  0  0  0  0  0  0  0  0  0
   10.9579   -3.9459   33.2612 O   0  0  0  0  0  0  0  0  0  0  0  0
   14.2254    2.3111   30.8377 C   0  0  0  0  0  0  0  0  0  0  0  0
   11.9246   -1.3952   33.1098 C   0  0  0  0  0  0  0  0  0  0  0  0
  1  2  1  0
  2  3  2  0
  1  4  1  0
  3  5  1  0
  4  5  1  0
  4  6  2  0
  6  7  1  0
  2  8  1  0
  8  9  2  0
  3 10  1  0
  7 11  1  0
  9 12  1  0
 10 12  2  0
  5 13  1  0
  7 13  2  0
M  END
>  <ID>  (1) 
conformer_0

$$$$
