
     RDKit          3D

 17 18  0  0  0  0  0  0  0  0999 V2000
   10.5388   -4.7336   33.1193 O   0  0  0  0  0  0  0  0  0  0  0  0
   11.2405   -3.5915   32.7587 P   0  0  0  0  0  0  0  0  0  0  0  0
   11.4434   -2.6484   33.7501 O   0  0  0  0  0  0  0  0  0  0  0  0
   11.9856   -1.2541   33.4239 C   0  0  0  0  0  0  0  0  0  0  0  0
   11.4213   -0.7001   32.3773 C   0  0  0  0  0  0  0  0  0  0  0  0
   10.6680   -2.9478   31.5140 O   0  0  0  0  0  0  0  0  0  0  0  0
   12.2449    0.4108   31.9906 C   0  0  0  0  0  0  0  0  0  0  0  0
   13.4303    0.1607   31.1880 C   0  0  0  0  0  0  0  0  0  0  0  0
   13.8867   -1.2585   30.9200 C   0  0  0  0  0  0  0  0  0  0  0  0
   14.9061   -1.3703   30.0805 N   0  0  0  0  0  0  0  0  0  0  0  0
   15.5046   -0.2659   29.5289 C   0  0  0  0  0  0  0  0  0  0  0  0
   11.8593    1.7804   31.9472 C   0  0  0  0  0  0  0  0  0  0  0  0
   12.7031   -4.0332   32.4328 O   0  0  0  0  0  0  0  0  0  0  0  0
   12.7258    2.7686   31.5766 C   0  0  0  0  0  0  0  0  0  0  0  0
   15.1194    1.0912   29.8106 C   0  0  0  0  0  0  0  0  0  0  0  0
   13.9282    2.4902   30.9919 C   0  0  0  0  0  0  0  0  0  0  0  0
   14.1483    1.2515   30.6548 C   0  0  0  0  0  0  0  0  0  0  0  0
  1  2  1  0
  2  3  1  0
  3  4  1  0
  4  5  1  0
  2  6  1  0
  5  7  1  0
  7  8  2  0
  8  9  1  0
  9 10  1  0
 10 11  2  0
  7 12  1  0
  2 13  2  0
 12 14  2  0
 11 15  1  0
 14 16  1  0
  8 17  1  0
 15 17  2  0
 16 17  1  0
M  END
>  <ID>  (1) 
conformer_0

$$$$
