
     RDKit          3D

 20 24  0  0  0  0  0  0  0  0999 V2000
   14.9415   -0.3121   29.8146 C   0  0  0  0  0  0  0  0  0  0  0  0
   14.0567   -0.8624   30.7199 C   0  0  0  0  0  0  0  0  0  0  0  0
   13.8460   -2.1983   31.0553 N   0  0  0  0  0  0  0  0  0  0  0  0
   13.2832    0.0214   31.5646 C   0  0  0  0  0  0  0  0  0  0  0  0
   13.0465   -2.6209   31.9576 C   0  0  0  0  0  0  0  0  0  0  0  0
   12.3188   -1.7268   32.8058 N   0  0  0  0  0  0  0  0  0  0  0  0
   12.4489   -0.4095   32.5975 C   0  0  0  0  0  0  0  0  0  0  0  0
   11.7178    0.2273   33.2223 O   0  0  0  0  0  0  0  0  0  0  0  0
   11.3493   -2.3490   33.7499 C   0  0  0  0  0  0  0  0  0  0  0  0
   13.4861    1.4814   31.4123 C   0  0  0  0  0  0  0  0  0  0  0  0
   15.0820    0.9955   29.6109 C   0  0  0  0  0  0  0  0  0  0  0  0
    9.9728   -2.1376   33.5490 C   0  0  0  0  0  0  0  0  0  0  0  0
    9.5434   -3.3400   33.1510 O   0  0  0  0  0  0  0  0  0  0  0  0
   11.6748   -1.7127   35.0951 C   0  0  0  0  0  0  0  0  0  0  0  0
    9.4666   -1.4374   34.6750 O   0  0  0  0  0  0  0  0  0  0  0  0
   10.5795   -4.2644   32.7557 C   0  0  0  0  0  0  0  0  0  0  0  0
   12.6436   -3.8847   32.1433 N   0  0  0  0  0  0  0  0  0  0  0  0
   14.3680    1.9115   30.4203 C   0  0  0  0  0  0  0  0  0  0  0  0
   11.5781   -3.9680   32.9585 C   0  0  0  0  0  0  0  0  0  0  0  0
   10.4049   -1.3428   35.5931 C   0  0  0  0  0  0  0  0  0  0  0  0
  1  2  1  0
  2  3  1  0
  2  4  2  0
  3  5  1  0
  5  6  1  0
  4  7  1  0
  6  7  1  0
  7  8  2  0
  6  9  1  0
  4 10  1  0
  1 11  2  0
  9 12  1  0
 12 13  1  0
  9 14  1  0
 12 15  1  0
 13 16  1  0
  5 17  2  0
 10 18  2  0
 11 18  1  0
  9 19  1  0
 16 19  2  0
 17 19  1  0
 14 20  1  0
 15 20  1  0
M  END
>  <ID>  (1) 
conformer_0

$$$$
