
     RDKit          3D

 13 14  0  0  0  0  0  0  0  0999 V2000
   13.4653   -2.6345   31.1162 O   0  0  0  0  0  0  0  0  0  0  0  0
   12.6885   -2.1434   32.1911 C   0  0  0  0  0  0  0  0  0  0  0  0
   12.6873   -0.8426   32.4640 C   0  0  0  0  0  0  0  0  0  0  0  0
   11.7409   -0.1514   32.7472 C   0  0  0  0  0  0  0  0  0  0  0  0
   13.9029   -0.1177   32.1247 C   0  0  0  0  0  0  0  0  0  0  0  0
   11.7184   -3.0987   32.6317 C   0  0  0  0  0  0  0  0  0  0  0  0
   13.8974    1.2325   32.1382 C   0  0  0  0  0  0  0  0  0  0  0  0
   11.1339   -4.0608   31.9481 O   0  0  0  0  0  0  0  0  0  0  0  0
   11.6156    1.2048   32.8883 C   0  0  0  0  0  0  0  0  0  0  0  0
   10.6882   -2.5022   33.5447 C   0  0  0  0  0  0  0  0  0  0  0  0
   12.8229    2.0039   32.3894 C   0  0  0  0  0  0  0  0  0  0  0  0
   10.5834   -1.0053   33.3925 C   0  0  0  0  0  0  0  0  0  0  0  0
   10.9326   -2.7221   34.8402 O   0  0  0  0  0  0  0  0  0  0  0  0
  1  2  1  0
  2  3  1  0
  3  4  2  0
  3  5  1  0
  2  6  1  0
  5  7  2  0
  6  8  1  0
  4  9  1  0
  6 10  1  0
  7 11  1  0
  9 11  2  0
  4 12  1  0
 10 12  1  0
 10 13  1  0
M  END
>  <ID>  (1) 
conformer_0

$$$$
