
     RDKit          3D

 18 20  0  0  0  0  0  0  0  0999 V2000
   14.9415   -0.3121   29.8146 C   0  0  0  0  0  0  0  0  0  0  0  0
   14.0567   -0.8624   30.7199 C   0  0  0  0  0  0  0  0  0  0  0  0
   13.3565    0.0095   31.6189 C   0  0  0  0  0  0  0  0  0  0  0  0
   13.9899   -2.1689   31.0233 O   0  0  0  0  0  0  0  0  0  0  0  0
   13.0611   -2.3196   32.1324 C   0  0  0  0  0  0  0  0  0  0  0  0
   12.1390   -3.4263   32.3868 C   0  0  0  0  0  0  0  0  0  0  0  0
   15.0511    1.0535   29.6691 C   0  0  0  0  0  0  0  0  0  0  0  0
   13.4655    1.3764   31.5175 C   0  0  0  0  0  0  0  0  0  0  0  0
   12.1121   -3.9024   33.5994 O   0  0  0  0  0  0  0  0  0  0  0  0
   12.7304    2.2899   32.3027 C   0  0  0  0  0  0  0  0  0  0  0  0
   11.2417   -3.7198   31.5398 O   0  0  0  0  0  0  0  0  0  0  0  0
   12.5994   -0.8478   32.4928 C   0  0  0  0  0  0  0  0  0  0  0  0
   11.4731    2.2992   32.3798 C   0  0  0  0  0  0  0  0  0  0  0  0
   14.3216    1.9457   30.5023 C   0  0  0  0  0  0  0  0  0  0  0  0
   13.3814    3.2928   33.0564 C   0  0  0  0  0  0  0  0  0  0  0  0
   12.4214    4.1064   33.7343 C   0  0  0  0  0  0  0  0  0  0  0  0
   11.2030    4.0345   33.8019 C   0  0  0  0  0  0  0  0  0  0  0  0
   10.5736    3.1532   33.1585 C   0  0  0  0  0  0  0  0  0  0  0  0
  1  2  2  0
  2  3  1  0
  2  4  1  0
  4  5  1  0
  5  6  1  0
  1  7  1  0
  3  8  2  0
  6  9  1  0
  8 10  1  0
  6 11  2  0
  3 12  1  0
  5 12  1  0
 10 13  2  0
  7 14  2  0
  8 14  1  0
 10 15  1  0
 15 16  2  0
 16 17  1  0
 13 18  1  0
 17 18  2  0
M  END
>  <ID>  (1) 
conformer_0

$$$$
