
     RDKit          3D

 18 20  0  0  0  0  0  0  0  0999 V2000
   14.9545   -0.5692   29.9026 O   0  0  0  0  0  0  0  0  0  0  0  0
   14.1013   -0.3688   30.7517 C   0  0  0  0  0  0  0  0  0  0  0  0
   13.7363    0.9580   31.1042 C   0  0  0  0  0  0  0  0  0  0  0  0
   12.7985    1.2355   32.0165 C   0  0  0  0  0  0  0  0  0  0  0  0
   14.8009    1.8704   30.7580 C   0  0  0  0  0  0  0  0  0  0  0  0
   15.7548    1.6965   29.8798 O   0  0  0  0  0  0  0  0  0  0  0  0
   13.5892   -1.4091   31.4291 N   0  0  0  0  0  0  0  0  0  0  0  0
   12.4354   -1.1177   32.2676 C   0  0  0  0  0  0  0  0  0  0  0  0
   14.2732    3.2545   30.9583 C   0  0  0  0  0  0  0  0  0  0  0  0
   13.3444    3.5758   31.8096 C   0  0  0  0  0  0  0  0  0  0  0  0
   12.4794    2.3529   32.2351 C   0  0  0  0  0  0  0  0  0  0  0  0
   11.6723   -2.1807   32.8551 C   0  0  0  0  0  0  0  0  0  0  0  0
   10.6205   -2.0149   33.5178 C   0  0  0  0  0  0  0  0  0  0  0  0
   12.0349    0.1021   32.4343 C   0  0  0  0  0  0  0  0  0  0  0  0
   11.8873   -3.6340   32.2065 C   0  0  0  0  0  0  0  0  0  0  0  0
    9.9397   -3.0123   34.0672 C   0  0  0  0  0  0  0  0  0  0  0  0
   10.1461   -4.3094   33.7290 N   0  0  0  0  0  0  0  0  0  0  0  0
   11.0421   -4.5268   32.8167 N   0  0  0  0  0  0  0  0  0  0  0  0
  1  2  2  0
  2  3  1  0
  3  4  1  0
  3  5  2  0
  5  6  1  0
  2  7  1  0
  7  8  1  0
  5  9  1  0
  9 10  2  0
  4 11  2  0
 10 11  1  0
  8 12  1  0
 12 13  2  0
  4 14  1  0
  8 14  2  0
 12 15  1  0
 13 16  1  0
 16 17  2  0
 15 18  2  0
 17 18  1  0
M  END
>  <ID>  (1) 
conformer_0

$$$$
