
     RDKit          3D

 18 19  0  0  0  0  0  0  0  0999 V2000
   15.2424    1.0094   29.6190 C   0  0  0  0  0  0  0  0  0  0  0  0
   14.8476   -0.2168   29.8103 C   0  0  0  0  0  0  0  0  0  0  0  0
   13.9629   -0.3251   30.9588 C   0  0  0  0  0  0  0  0  0  0  0  0
   13.6854    1.0207   31.4904 C   0  0  0  0  0  0  0  0  0  0  0  0
   12.7477    1.1989   32.5737 N   0  0  0  0  0  0  0  0  0  0  0  0
   13.4062   -1.3912   31.5865 C   0  0  0  0  0  0  0  0  0  0  0  0
   12.3537   -1.3749   32.2619 O   0  0  0  0  0  0  0  0  0  0  0  0
   11.7509    2.1783   32.5286 C   0  0  0  0  0  0  0  0  0  0  0  0
   11.9513    3.4638   32.3385 C   0  0  0  0  0  0  0  0  0  0  0  0
   10.3091    1.7883   32.6041 C   0  0  0  0  0  0  0  0  0  0  0  0
   14.5603    2.1921   30.5764 S   0  0  0  0  0  0  0  0  0  0  0  0
   11.8817   -2.5800   33.0002 P   0  0  0  0  0  0  0  0  0  0  0  0
   10.8554    4.3843   32.2877 C   0  0  0  0  0  0  0  0  0  0  0  0
    9.3693    2.5524   32.7174 C   0  0  0  0  0  0  0  0  0  0  0  0
    9.5886    3.9819   32.4875 C   0  0  0  0  0  0  0  0  0  0  0  0
   10.8354   -2.2264   34.0119 O   0  0  0  0  0  0  0  0  0  0  0  0
   13.0035   -3.2498   33.7567 O   0  0  0  0  0  0  0  0  0  0  0  0
   11.2634   -3.5917   31.9689 O   0  0  0  0  0  0  0  0  0  0  0  0
  1  2  2  0
  2  3  1  0
  3  4  2  0
  4  5  1  0
  3  6  1  0
  6  7  1  0
  5  8  1  0
  8  9  2  0
  8 10  1  0
  1 11  1  0
  4 11  1  0
  7 12  1  0
  9 13  1  0
 10 14  2  0
 13 15  2  0
 14 15  1  0
 12 16  1  0
 12 17  2  0
 12 18  1  0
M  END
>  <ID>  (1) 
conformer_0

$$$$
