
     RDKit          3D

 19 21  0  0  0  0  0  0  0  0999 V2000
   14.9481   -0.3148   29.8155 C   0  0  0  0  0  0  0  0  0  0  0  0
   14.0587   -0.8651   30.7182 C   0  0  0  0  0  0  0  0  0  0  0  0
   13.4131    0.3205   31.4429 C   0  0  0  0  0  0  0  0  0  0  0  0
   13.8970   -2.0726   31.1671 N   0  0  0  0  0  0  0  0  0  0  0  0
   12.9981   -2.2836   32.1101 C   0  0  0  0  0  0  0  0  0  0  0  0
   12.5381   -3.6008   32.5466 C   0  0  0  0  0  0  0  0  0  0  0  0
   13.7997    1.5747   31.1846 C   0  0  0  0  0  0  0  0  0  0  0  0
   12.4640   -3.7156   33.8786 O   0  0  0  0  0  0  0  0  0  0  0  0
   13.1282    2.6673   31.9065 C   0  0  0  0  0  0  0  0  0  0  0  0
   13.4592    3.8832   31.8093 C   0  0  0  0  0  0  0  0  0  0  0  0
   12.5957   -0.2542   32.4630 N   0  0  0  0  0  0  0  0  0  0  0  0
   11.8110    2.3039   32.5140 C   0  0  0  0  0  0  0  0  0  0  0  0
   12.4618   -1.1510   32.7358 C   0  0  0  0  0  0  0  0  0  0  0  0
   15.2659    0.9832   29.5096 C   0  0  0  0  0  0  0  0  0  0  0  0
   12.7466    4.9240   32.3411 C   0  0  0  0  0  0  0  0  0  0  0  0
   11.5423    4.6360   32.8547 C   0  0  0  0  0  0  0  0  0  0  0  0
   11.2328   -3.9734   31.8497 O   0  0  0  0  0  0  0  0  0  0  0  0
   14.6406    1.9975   30.2513 C   0  0  0  0  0  0  0  0  0  0  0  0
   11.0410    3.3399   33.0023 C   0  0  0  0  0  0  0  0  0  0  0  0
  1  2  2  0
  2  3  1  0
  2  4  1  0
  4  5  2  0
  5  6  1  0
  3  7  2  0
  6  8  1  0
  7  9  1  0
  9 10  2  0
  3 11  1  0
  9 12  1  0
  5 13  1  0
 11 13  2  0
  1 14  1  0
 10 15  1  0
 15 16  2  0
  6 17  1  0
  7 18  1  0
 14 18  2  0
 12 19  2  0
 16 19  1  0
M  END
>  <ID>  (1) 
conformer_0

$$$$
