
     RDKit          3D

 14 14  0  0  0  0  0  0  0  0999 V2000
   15.0554    0.3062   29.5808 C   0  0  0  0  0  0  0  0  0  0  0  0
   14.3208   -0.6082   30.3596 C   0  0  0  0  0  0  0  0  0  0  0  0
   14.9588    1.6570   29.8943 C   0  0  0  0  0  0  0  0  0  0  0  0
   14.4553   -1.9723   30.2919 O   0  0  0  0  0  0  0  0  0  0  0  0
   14.1380    2.0112   31.0083 C   0  0  0  0  0  0  0  0  0  0  0  0
   13.9573    3.4215   31.3032 C   0  0  0  0  0  0  0  0  0  0  0  0
   12.6720    3.8694   31.3501 C   0  0  0  0  0  0  0  0  0  0  0  0
   13.4889   -0.1842   31.4032 C   0  0  0  0  0  0  0  0  0  0  0  0
   13.3406    1.0645   31.6953 C   0  0  0  0  0  0  0  0  0  0  0  0
   12.7467   -1.1869   32.1406 C   0  0  0  0  0  0  0  0  0  0  0  0
   12.1044    4.5816   32.5279 C   0  0  0  0  0  0  0  0  0  0  0  0
   13.2371   -2.1484   32.7628 O   0  0  0  0  0  0  0  0  0  0  0  0
   11.4470   -1.1070   32.3250 O   0  0  0  0  0  0  0  0  0  0  0  0
   10.7841    4.9495   32.4561 O   0  0  0  0  0  0  0  0  0  0  0  0
  1  2  1  0
  1  3  2  0
  2  4  1  0
  3  5  1  0
  5  6  1  0
  6  7  1  0
  2  8  2  0
  5  9  2  0
  8  9  1  0
  8 10  1  0
  7 11  1  0
 10 12  1  0
 10 13  2  0
 11 14  1  0
M  END
>  <ID>  (1) 
conformer_0

$$$$
