
     RDKit          3D

 17 19  0  0  0  0  0  0  0  0999 V2000
   14.3325   -1.7294   30.5587 O   0  0  0  0  0  0  0  0  0  0  0  0
   13.6224   -1.5069   31.5869 C   0  0  0  0  0  0  0  0  0  0  0  0
   13.1404   -0.3314   32.0500 C   0  0  0  0  0  0  0  0  0  0  0  0
   13.8067    0.8689   31.5340 C   0  0  0  0  0  0  0  0  0  0  0  0
   13.3680    2.1606   31.9229 C   0  0  0  0  0  0  0  0  0  0  0  0
   13.1318   -2.6323   32.3029 O   0  0  0  0  0  0  0  0  0  0  0  0
   14.1212    3.3146   31.4275 C   0  0  0  0  0  0  0  0  0  0  0  0
   11.9555    0.0728   32.7265 C   0  0  0  0  0  0  0  0  0  0  0  0
   11.8932   -3.2631   32.1615 C   0  0  0  0  0  0  0  0  0  0  0  0
   11.1166   -1.0401   33.2000 O   0  0  0  0  0  0  0  0  0  0  0  0
   12.2086    2.3028   32.6105 C   0  0  0  0  0  0  0  0  0  0  0  0
   11.3694   -2.3726   33.5685 C   0  0  0  0  0  0  0  0  0  0  0  0
   11.5367    1.1275   33.0099 C   0  0  0  0  0  0  0  0  0  0  0  0
   11.2543   -4.3762   32.5090 C   0  0  0  0  0  0  0  0  0  0  0  0
   10.1132   -3.0285   33.8549 C   0  0  0  0  0  0  0  0  0  0  0  0
   10.3300   -4.3745   33.4781 O   0  0  0  0  0  0  0  0  0  0  0  0
    9.2018   -2.7439   34.5963 O   0  0  0  0  0  0  0  0  0  0  0  0
  1  2  2  0
  2  3  1  0
  3  4  2  0
  4  5  1  0
  2  6  1  0
  5  7  1  0
  3  8  1  0
  6  9  1  0
  8 10  1  0
  5 11  2  0
  9 12  1  0
 10 12  1  0
  8 13  2  0
 11 13  1  0
  9 14  1  0
 12 15  1  0
 14 16  1  0
 15 16  1  0
 15 17  2  0
M  END
>  <ID>  (1) 
conformer_0

$$$$
