
     RDKit          3D

 18 20  0  0  0  0  0  0  0  0999 V2000
   14.9481   -0.3148   29.8155 C   0  0  0  0  0  0  0  0  0  0  0  0
   14.0587   -0.8651   30.7182 C   0  0  0  0  0  0  0  0  0  0  0  0
   13.4131    0.3205   31.4429 C   0  0  0  0  0  0  0  0  0  0  0  0
   13.8970   -2.0726   31.1671 N   0  0  0  0  0  0  0  0  0  0  0  0
   12.9981   -2.2836   32.1101 C   0  0  0  0  0  0  0  0  0  0  0  0
   12.5381   -3.6008   32.5466 C   0  0  0  0  0  0  0  0  0  0  0  0
   13.7997    1.5747   31.1846 C   0  0  0  0  0  0  0  0  0  0  0  0
   12.4640   -3.7156   33.8786 O   0  0  0  0  0  0  0  0  0  0  0  0
   13.1282    2.6673   31.9065 C   0  0  0  0  0  0  0  0  0  0  0  0
   13.4592    3.8832   31.8093 C   0  0  0  0  0  0  0  0  0  0  0  0
   14.8331    1.9338   30.3325 C   0  0  0  0  0  0  0  0  0  0  0  0
   12.0513    2.2037   32.7646 C   0  0  0  0  0  0  0  0  0  0  0  0
   11.7177   -4.3091   31.7910 O   0  0  0  0  0  0  0  0  0  0  0  0
   12.7999    4.9153   32.5714 C   0  0  0  0  0  0  0  0  0  0  0  0
   11.2568    3.1461   33.4290 C   0  0  0  0  0  0  0  0  0  0  0  0
   15.3596    0.9764   29.5851 C   0  0  0  0  0  0  0  0  0  0  0  0
   11.6286    4.5004   33.3777 C   0  0  0  0  0  0  0  0  0  0  0  0
   12.4836   -0.4902   32.4055 C   0  0  0  0  0  0  0  0  0  0  0  0
  1  2  2  0
  2  3  1  0
  2  4  1  0
  4  5  2  0
  5  6  1  0
  3  7  2  0
  6  8  1  0
  7  9  1  0
  9 10  2  0
  7 11  1  0
  9 12  1  0
  6 13  2  0
 10 14  1  0
 12 15  2  0
  1 16  1  0
 11 16  2  0
 14 17  2  0
 15 17  1  0
  3 18  1  0
  5 18  1  0
M  END
>  <ID>  (1) 
conformer_0

$$$$
