
     RDKit          3D

 20 23  0  0  0  0  0  0  0  0999 V2000
   14.9481   -0.3148   29.8155 C   0  0  0  0  0  0  0  0  0  0  0  0
   14.0587   -0.8651   30.7182 C   0  0  0  0  0  0  0  0  0  0  0  0
   13.3970    0.3022   31.4180 C   0  0  0  0  0  0  0  0  0  0  0  0
   13.9345   -2.0787   31.1761 N   0  0  0  0  0  0  0  0  0  0  0  0
   12.4343   -0.1878   32.3425 C   0  0  0  0  0  0  0  0  0  0  0  0
   13.0304   -2.4224   32.0424 C   0  0  0  0  0  0  0  0  0  0  0  0
   12.2048   -1.4453   32.6553 C   0  0  0  0  0  0  0  0  0  0  0  0
   11.6253    0.9719   32.9344 N   0  0  0  0  0  0  0  0  0  0  0  0
   10.4746    0.7886   33.5092 C   0  0  0  0  0  0  0  0  0  0  0  0
   12.7652   -3.7771   32.3643 O   0  0  0  0  0  0  0  0  0  0  0  0
   12.0622    2.2709   32.5440 C   0  0  0  0  0  0  0  0  0  0  0  0
   13.7232    1.5933   31.1072 C   0  0  0  0  0  0  0  0  0  0  0  0
   11.3412   -1.9260   33.7593 C   0  0  0  0  0  0  0  0  0  0  0  0
   11.2564    3.2903   33.1512 O   0  0  0  0  0  0  0  0  0  0  0  0
   10.6613   -3.0255   33.4655 C   0  0  0  0  0  0  0  0  0  0  0  0
   14.7570    1.6874   30.1765 C   0  0  0  0  0  0  0  0  0  0  0  0
   11.2901   -4.0483   32.5561 C   0  0  0  0  0  0  0  0  0  0  0  0
   15.3139    0.8247   29.4544 C   0  0  0  0  0  0  0  0  0  0  0  0
   11.0726   -5.2370   32.5328 O   0  0  0  0  0  0  0  0  0  0  0  0
   13.1136    2.5751   31.7594 N   0  0  0  0  0  0  0  0  0  0  0  0
  1  2  1  0
  2  3  2  0
  2  4  1  0
  3  5  1  0
  4  6  2  0
  5  7  2  0
  6  7  1  0
  5  8  1  0
  8  9  1  0
  6 10  1  0
  8 11  1  0
  3 12  1  0
  7 13  1  0
 11 14  2  0
 13 15  1  0
 12 16  2  0
 10 17  1  0
 15 17  1  0
  1 18  2  0
 16 18  1  0
 17 19  2  0
 11 20  1  0
 12 20  1  0
M  END
>  <ID>  (1) 
conformer_0

$$$$
