
     RDKit          3D

 15 16  0  0  0  0  0  0  0  0999 V2000
   14.0264   -0.3403   30.7143 C   0  0  0  0  0  0  0  0  0  0  0  0
   13.2506   -0.2783   31.6135 C   0  0  0  0  0  0  0  0  0  0  0  0
   12.6331   -1.4285   32.3110 C   0  0  0  0  0  0  0  0  0  0  0  0
   12.9965    0.9006   32.3271 C   0  0  0  0  0  0  0  0  0  0  0  0
   13.0901   -2.6929   32.2313 C   0  0  0  0  0  0  0  0  0  0  0  0
   14.7451    0.7030   30.1071 C   0  0  0  0  0  0  0  0  0  0  0  0
   11.1445   -1.3485   32.3538 C   0  0  0  0  0  0  0  0  0  0  0  0
   10.5394   -0.1341   32.3410 O   0  0  0  0  0  0  0  0  0  0  0  0
   15.6230    0.6563   29.0236 C   0  0  0  0  0  0  0  0  0  0  0  0
   12.3079   -3.7930   32.5886 C   0  0  0  0  0  0  0  0  0  0  0  0
   14.6465    1.8648   30.5902 C   0  0  0  0  0  0  0  0  0  0  0  0
   10.9746   -3.6646   32.8877 C   0  0  0  0  0  0  0  0  0  0  0  0
   10.2643   -4.7009   33.2207 O   0  0  0  0  0  0  0  0  0  0  0  0
   13.7007    2.1094   31.7866 C   0  0  0  0  0  0  0  0  0  0  0  0
   10.4133   -2.4340   32.9002 N   0  0  0  0  0  0  0  0  0  0  0  0
  1  2  2  0
  2  3  1  0
  2  4  1  0
  3  5  1  0
  1  6  1  0
  3  7  2  0
  7  8  1  0
  6  9  1  0
  5 10  2  0
  6 11  2  0
 10 12  1  0
 12 13  2  0
  4 14  2  0
 11 14  1  0
  7 15  1  0
 12 15  1  0
M  END
>  <ID>  (1) 
conformer_0

$$$$
