
     RDKit          3D

  9  9  0  0  0  0  0  0  0  0999 V2000
   14.9545   -0.5692   29.9026 O   0  0  0  0  0  0  0  0  0  0  0  0
   14.7914    0.5943   29.9916 C   0  0  0  0  0  0  0  0  0  0  0  0
   14.2767    1.1923   31.0210 C   0  0  0  0  0  0  0  0  0  0  0  0
   15.3536    1.4164   28.9536 O   0  0  0  0  0  0  0  0  0  0  0  0
   13.3571    0.4763   31.8461 C   0  0  0  0  0  0  0  0  0  0  0  0
   14.1332    2.5958   31.0299 C   0  0  0  0  0  0  0  0  0  0  0  0
   12.6259    1.2774   32.7008 C   0  0  0  0  0  0  0  0  0  0  0  0
   12.6347    2.6405   32.7870 C   0  0  0  0  0  0  0  0  0  0  0  0
   13.4365    3.2855   31.9097 C   0  0  0  0  0  0  0  0  0  0  0  0
  1  2  2  0
  2  3  1  0
  2  4  1  0
  3  5  1  0
  3  6  2  0
  5  7  2  0
  7  8  1  0
  6  9  1  0
  8  9  2  0
M  END
>  <ID>  (1) 
conformer_0

$$$$
