
     RDKit          3D

 19 21  0  0  0  0  0  0  0  0999 V2000
   14.9415   -0.3121   29.8146 C   0  0  0  0  0  0  0  0  0  0  0  0
   14.0567   -0.8624   30.7199 C   0  0  0  0  0  0  0  0  0  0  0  0
   13.8460   -2.1983   31.0553 N   0  0  0  0  0  0  0  0  0  0  0  0
   13.2832    0.0214   31.5646 C   0  0  0  0  0  0  0  0  0  0  0  0
   13.0465   -2.6209   31.9576 C   0  0  0  0  0  0  0  0  0  0  0  0
   12.3188   -1.7268   32.8058 N   0  0  0  0  0  0  0  0  0  0  0  0
   12.4489   -0.4095   32.5975 C   0  0  0  0  0  0  0  0  0  0  0  0
   11.7178    0.2273   33.2223 O   0  0  0  0  0  0  0  0  0  0  0  0
   11.3493   -2.3490   33.7499 C   0  0  0  0  0  0  0  0  0  0  0  0
   13.4861    1.4814   31.4123 C   0  0  0  0  0  0  0  0  0  0  0  0
   15.0820    0.9955   29.6109 C   0  0  0  0  0  0  0  0  0  0  0  0
    9.9728   -2.1376   33.5490 C   0  0  0  0  0  0  0  0  0  0  0  0
    9.5434   -3.3400   33.1510 O   0  0  0  0  0  0  0  0  0  0  0  0
   11.6748   -1.7127   35.0951 C   0  0  0  0  0  0  0  0  0  0  0  0
    9.4666   -1.4374   34.6750 O   0  0  0  0  0  0  0  0  0  0  0  0
   12.8714   -3.8192   32.0619 O   0  0  0  0  0  0  0  0  0  0  0  0
   15.9280    1.5455   28.6875 F   0  0  0  0  0  0  0  0  0  0  0  0
   10.3458   -1.3136   35.6281 C   0  0  0  0  0  0  0  0  0  0  0  0
   14.3771    1.9340   30.4449 C   0  0  0  0  0  0  0  0  0  0  0  0
  1  2  1  0
  2  3  1  0
  2  4  2  0
  3  5  1  0
  5  6  1  0
  4  7  1  0
  6  7  1  0
  7  8  2  0
  6  9  1  0
  4 10  1  0
  1 11  2  0
  9 12  1  0
 12 13  1  0
  9 14  1  0
 12 15  1  0
  5 16  2  0
 11 17  1  0
 14 18  1  0
 15 18  1  0
 10 19  2  0
 11 19  1  0
M  END
>  <ID>  (1) 
conformer_0

$$$$
