
     RDKit          3D

 20 22  0  0  0  0  0  0  0  0999 V2000
   13.9874   -2.4049   30.8515 O   0  0  0  0  0  0  0  0  0  0  0  0
   13.2735   -1.6145   31.7831 C   0  0  0  0  0  0  0  0  0  0  0  0
   13.2367   -0.3271   31.7045 C   0  0  0  0  0  0  0  0  0  0  0  0
   12.2067    0.3061   32.4502 C   0  0  0  0  0  0  0  0  0  0  0  0
   14.1478    0.4403   31.0747 C   0  0  0  0  0  0  0  0  0  0  0  0
   14.0808    1.8069   31.2025 C   0  0  0  0  0  0  0  0  0  0  0  0
   15.1154   -0.0045   30.2352 C   0  0  0  0  0  0  0  0  0  0  0  0
   11.0720   -0.4435   32.8866 C   0  0  0  0  0  0  0  0  0  0  0  0
   13.2278    2.5596   32.0267 C   0  0  0  0  0  0  0  0  0  0  0  0
   12.1313   -2.4283   32.3938 C   0  0  0  0  0  0  0  0  0  0  0  0
   12.1284    1.7354   32.5614 C   0  0  0  0  0  0  0  0  0  0  0  0
   11.1630   -1.7821   32.9355 C   0  0  0  0  0  0  0  0  0  0  0  0
   13.0782    3.9031   32.2279 C   0  0  0  0  0  0  0  0  0  0  0  0
   12.1812   -3.9338   32.1271 O   0  0  0  0  0  0  0  0  0  0  0  0
   15.8487    0.8836   29.4433 C   0  0  0  0  0  0  0  0  0  0  0  0
   15.7856    2.2493   29.6398 C   0  0  0  0  0  0  0  0  0  0  0  0
   14.9302    2.7849   30.5014 C   0  0  0  0  0  0  0  0  0  0  0  0
   10.3957   -2.4897   33.5841 O   0  0  0  0  0  0  0  0  0  0  0  0
   13.6526    4.2856   33.2763 O   0  0  0  0  0  0  0  0  0  0  0  0
   12.7232    4.5479   31.4936 O   0  0  0  0  0  0  0  0  0  0  0  0
  1  2  1  0
  2  3  2  0
  3  4  1  0
  3  5  1  0
  5  6  1  0
  5  7  2  0
  4  8  2  0
  6  9  1  0
  2 10  1  0
  4 11  1  0
  9 11  2  0
  8 12  1  0
 10 12  2  0
  9 13  1  0
 10 14  1  0
  7 15  1  0
 15 16  2  0
  6 17  2  0
 16 17  1  0
 12 18  1  0
 13 19  1  0
 13 20  2  0
M  END
>  <ID>  (1) 
conformer_0

$$$$
