
     RDKit          3D

 20 23  0  0  0  0  0  0  0  0999 V2000
   13.9874   -2.4049   30.8515 O   0  0  0  0  0  0  0  0  0  0  0  0
   13.2735   -1.6145   31.7831 C   0  0  0  0  0  0  0  0  0  0  0  0
   13.2367   -0.3271   31.7045 C   0  0  0  0  0  0  0  0  0  0  0  0
   12.2067    0.3061   32.4502 C   0  0  0  0  0  0  0  0  0  0  0  0
   14.1478    0.4403   31.0747 C   0  0  0  0  0  0  0  0  0  0  0  0
   14.0808    1.8069   31.2025 C   0  0  0  0  0  0  0  0  0  0  0  0
   15.1154   -0.0045   30.2352 C   0  0  0  0  0  0  0  0  0  0  0  0
   11.0720   -0.4435   32.8866 C   0  0  0  0  0  0  0  0  0  0  0  0
   13.2278    2.5596   32.0267 C   0  0  0  0  0  0  0  0  0  0  0  0
   12.0886    1.7601   32.5560 C   0  0  0  0  0  0  0  0  0  0  0  0
   10.9795    2.2922   33.0142 C   0  0  0  0  0  0  0  0  0  0  0  0
   12.1343   -2.4311   32.3694 C   0  0  0  0  0  0  0  0  0  0  0  0
   12.1725   -3.8869   32.3254 O   0  0  0  0  0  0  0  0  0  0  0  0
   10.0846    0.2296   33.6508 O   0  0  0  0  0  0  0  0  0  0  0  0
   10.8884   -4.4364   32.0191 C   0  0  0  0  0  0  0  0  0  0  0  0
    9.9801    1.5024   33.6367 C   0  0  0  0  0  0  0  0  0  0  0  0
   15.7066    1.2639   29.6751 C   0  0  0  0  0  0  0  0  0  0  0  0
    8.8884    2.0579   33.9958 O   0  0  0  0  0  0  0  0  0  0  0  0
   11.1626   -1.8197   33.1017 C   0  0  0  0  0  0  0  0  0  0  0  0
   15.0957    2.3416   30.2013 N   0  0  0  0  0  0  0  0  0  0  0  0
  1  2  1  0
  2  3  2  0
  3  4  1  0
  3  5  1  0
  5  6  1  0
  5  7  2  0
  4  8  2  0
  6  9  1  0
  4 10  1  0
  9 10  1  0
 10 11  2  0
  2 12  1  0
 12 13  1  0
  8 14  1  0
 13 15  1  0
 11 16  1  0
 14 16  1  0
  7 17  1  0
 16 18  2  0
  8 19  1  0
 12 19  2  0
  6 20  2  0
 17 20  1  0
M  END
>  <ID>  (1) 
conformer_0

$$$$
