
     RDKit          3D

 20 23  0  0  0  0  0  0  0  0999 V2000
   13.9874   -2.4049   30.8515 O   0  0  0  0  0  0  0  0  0  0  0  0
   13.2735   -1.6145   31.7831 C   0  0  0  0  0  0  0  0  0  0  0  0
   13.2367   -0.3271   31.7045 C   0  0  0  0  0  0  0  0  0  0  0  0
   12.2067    0.3061   32.4502 C   0  0  0  0  0  0  0  0  0  0  0  0
   14.1478    0.4403   31.0747 C   0  0  0  0  0  0  0  0  0  0  0  0
   14.0808    1.8069   31.2025 C   0  0  0  0  0  0  0  0  0  0  0  0
   15.1154   -0.0045   30.2352 C   0  0  0  0  0  0  0  0  0  0  0  0
   11.0720   -0.4435   32.8866 C   0  0  0  0  0  0  0  0  0  0  0  0
   13.2278    2.5596   32.0267 C   0  0  0  0  0  0  0  0  0  0  0  0
   12.0886    1.7601   32.5560 C   0  0  0  0  0  0  0  0  0  0  0  0
   10.9795    2.2922   33.0142 C   0  0  0  0  0  0  0  0  0  0  0  0
   14.7962    2.4470   30.3874 N   0  0  0  0  0  0  0  0  0  0  0  0
   10.1512    0.1728   33.6457 O   0  0  0  0  0  0  0  0  0  0  0  0
   12.1927   -2.5254   32.3206 C   0  0  0  0  0  0  0  0  0  0  0  0
   11.1805   -1.8699   33.0448 C   0  0  0  0  0  0  0  0  0  0  0  0
   15.6415    1.5508   29.6844 C   0  0  0  0  0  0  0  0  0  0  0  0
    9.9469    1.5888   33.6251 C   0  0  0  0  0  0  0  0  0  0  0  0
   12.2238   -3.9609   32.1693 O   0  0  0  0  0  0  0  0  0  0  0  0
   10.0868   -2.6395   33.5612 O   0  0  0  0  0  0  0  0  0  0  0  0
    8.7836    2.0126   33.8496 O   0  0  0  0  0  0  0  0  0  0  0  0
  1  2  1  0
  2  3  2  0
  3  4  1  0
  3  5  1  0
  5  6  1  0
  5  7  2  0
  4  8  2  0
  6  9  1  0
  4 10  1  0
  9 10  1  0
 10 11  2  0
  6 12  2  0
  8 13  1  0
  2 14  1  0
  8 15  1  0
 14 15  2  0
  7 16  1  0
 12 16  1  0
 11 17  1  0
 13 17  1  0
 14 18  1  0
 15 19  1  0
 17 20  2  0
M  END
>  <ID>  (1) 
conformer_0

$$$$
