
     RDKit          3D

 20 23  0  0  0  0  0  0  0  0999 V2000
   13.9874   -2.4049   30.8515 O   0  0  0  0  0  0  0  0  0  0  0  0
   13.2735   -1.6145   31.7831 C   0  0  0  0  0  0  0  0  0  0  0  0
   13.2367   -0.3271   31.7045 C   0  0  0  0  0  0  0  0  0  0  0  0
   12.2067    0.3061   32.4502 C   0  0  0  0  0  0  0  0  0  0  0  0
   14.1478    0.4403   31.0747 C   0  0  0  0  0  0  0  0  0  0  0  0
   14.0808    1.8069   31.2025 C   0  0  0  0  0  0  0  0  0  0  0  0
   15.1154   -0.0045   30.2352 C   0  0  0  0  0  0  0  0  0  0  0  0
   11.0720   -0.4435   32.8866 C   0  0  0  0  0  0  0  0  0  0  0  0
   13.2278    2.5596   32.0267 C   0  0  0  0  0  0  0  0  0  0  0  0
   12.0886    1.7601   32.5560 C   0  0  0  0  0  0  0  0  0  0  0  0
   10.9795    2.2922   33.0142 C   0  0  0  0  0  0  0  0  0  0  0  0
   12.1343   -2.4311   32.3694 C   0  0  0  0  0  0  0  0  0  0  0  0
   11.1929   -1.7936   32.9779 C   0  0  0  0  0  0  0  0  0  0  0  0
   15.1133    2.4045   30.3925 C   0  0  0  0  0  0  0  0  0  0  0  0
   12.1638   -3.9375   32.1441 O   0  0  0  0  0  0  0  0  0  0  0  0
   12.6773    3.8186   32.2094 N   0  0  0  0  0  0  0  0  0  0  0  0
   15.6752    1.3162   29.7557 C   0  0  0  0  0  0  0  0  0  0  0  0
   11.6684    4.1089   32.8806 N   0  0  0  0  0  0  0  0  0  0  0  0
   10.3542   -2.5328   33.7621 O   0  0  0  0  0  0  0  0  0  0  0  0
   10.7876    3.4939   33.2809 C   0  0  0  0  0  0  0  0  0  0  0  0
  1  2  1  0
  2  3  2  0
  3  4  1  0
  3  5  1  0
  5  6  1  0
  5  7  2  0
  4  8  2  0
  6  9  1  0
  4 10  1  0
  9 10  1  0
 10 11  2  0
  2 12  1  0
  8 13  1  0
 12 13  2  0
  6 14  2  0
 12 15  1  0
  9 16  2  0
  7 17  1  0
 14 17  1  0
 16 18  1  0
 13 19  1  0
 11 20  1  0
 18 20  2  0
M  END
>  <ID>  (1) 
conformer_0

$$$$
