
     RDKit          3D

 19 21  0  0  0  0  0  0  0  0999 V2000
   14.9481   -0.3148   29.8155 C   0  0  0  0  0  0  0  0  0  0  0  0
   14.0587   -0.8651   30.7182 C   0  0  0  0  0  0  0  0  0  0  0  0
   13.4131    0.3205   31.4429 C   0  0  0  0  0  0  0  0  0  0  0  0
   13.8970   -2.0726   31.1671 N   0  0  0  0  0  0  0  0  0  0  0  0
   12.9981   -2.2836   32.1101 C   0  0  0  0  0  0  0  0  0  0  0  0
   12.5381   -3.6008   32.5466 C   0  0  0  0  0  0  0  0  0  0  0  0
   13.7997    1.5747   31.1846 C   0  0  0  0  0  0  0  0  0  0  0  0
   12.4640   -3.7156   33.8786 O   0  0  0  0  0  0  0  0  0  0  0  0
   13.1282    2.6673   31.9065 C   0  0  0  0  0  0  0  0  0  0  0  0
   13.4592    3.8832   31.8093 C   0  0  0  0  0  0  0  0  0  0  0  0
   12.5957   -0.2542   32.4630 N   0  0  0  0  0  0  0  0  0  0  0  0
   11.8110    2.3039   32.5140 C   0  0  0  0  0  0  0  0  0  0  0  0
   11.1944    3.2989   33.4008 C   0  0  0  0  0  0  0  0  0  0  0  0
   14.7669    1.9617   30.1870 C   0  0  0  0  0  0  0  0  0  0  0  0
   11.6754   -4.2722   31.7862 O   0  0  0  0  0  0  0  0  0  0  0  0
   11.8873    4.6380   33.4050 C   0  0  0  0  0  0  0  0  0  0  0  0
   12.8668    4.9177   32.7574 C   0  0  0  0  0  0  0  0  0  0  0  0
   15.2928    0.9531   29.4965 C   0  0  0  0  0  0  0  0  0  0  0  0
   12.3210   -1.3852   32.7803 C   0  0  0  0  0  0  0  0  0  0  0  0
  1  2  2  0
  2  3  1  0
  2  4  1  0
  4  5  2  0
  5  6  1  0
  3  7  2  0
  6  8  1  0
  7  9  1  0
  9 10  2  0
  3 11  1  0
  9 12  1  0
 12 13  2  0
  7 14  1  0
  6 15  2  0
 13 16  1  0
 10 17  1  0
 16 17  2  0
  1 18  1  0
 14 18  2  0
  5 19  1  0
 11 19  2  0
M  END
>  <ID>  (1) 
conformer_0

$$$$
