
     RDKit          3D

 20 23  0  0  0  0  0  0  0  0999 V2000
   13.9874   -2.4049   30.8515 O   0  0  0  0  0  0  0  0  0  0  0  0
   13.2735   -1.6145   31.7831 C   0  0  0  0  0  0  0  0  0  0  0  0
   13.2367   -0.3271   31.7045 C   0  0  0  0  0  0  0  0  0  0  0  0
   12.2067    0.3061   32.4502 C   0  0  0  0  0  0  0  0  0  0  0  0
   14.1478    0.4403   31.0747 C   0  0  0  0  0  0  0  0  0  0  0  0
   14.0808    1.8069   31.2025 C   0  0  0  0  0  0  0  0  0  0  0  0
   15.1154   -0.0045   30.2352 C   0  0  0  0  0  0  0  0  0  0  0  0
   11.0720   -0.4435   32.8866 C   0  0  0  0  0  0  0  0  0  0  0  0
   13.2278    2.5596   32.0267 C   0  0  0  0  0  0  0  0  0  0  0  0
   12.0886    1.7601   32.5560 C   0  0  0  0  0  0  0  0  0  0  0  0
   10.9795    2.2922   33.0142 C   0  0  0  0  0  0  0  0  0  0  0  0
   12.1343   -2.4311   32.3694 C   0  0  0  0  0  0  0  0  0  0  0  0
   15.1239    2.3853   30.4002 N   0  0  0  0  0  0  0  0  0  0  0  0
   11.1468   -1.8064   32.9671 C   0  0  0  0  0  0  0  0  0  0  0  0
   12.1567   -3.9448   32.1194 O   0  0  0  0  0  0  0  0  0  0  0  0
   13.1885    3.8616   32.1925 C   0  0  0  0  0  0  0  0  0  0  0  0
   12.0300    4.4349   32.9587 C   0  0  0  0  0  0  0  0  0  0  0  0
   11.0184    3.7219   33.3494 C   0  0  0  0  0  0  0  0  0  0  0  0
   10.3358   -2.5637   33.7217 O   0  0  0  0  0  0  0  0  0  0  0  0
   15.6680    1.2945   29.7673 N   0  0  0  0  0  0  0  0  0  0  0  0
  1  2  1  0
  2  3  2  0
  3  4  1  0
  3  5  1  0
  5  6  1  0
  5  7  2  0
  4  8  2  0
  6  9  1  0
  4 10  1  0
  9 10  1  0
 10 11  2  0
  2 12  1  0
  6 13  2  0
  8 14  1  0
 12 14  2  0
 12 15  1  0
  9 16  2  0
 16 17  1  0
 11 18  1  0
 17 18  2  0
 14 19  1  0
  7 20  1  0
 13 20  1  0
M  END
>  <ID>  (1) 
conformer_0

$$$$
