
     RDKit          3D

 19 21  0  0  0  0  0  0  0  0999 V2000
   13.8909   -0.9600   30.6971 C   0  0  0  0  0  0  0  0  0  0  0  0
   14.3429    0.2114   30.3848 C   0  0  0  0  0  0  0  0  0  0  0  0
   14.0715    1.3167   31.2726 C   0  0  0  0  0  0  0  0  0  0  0  0
   13.2048    1.2034   32.3268 C   0  0  0  0  0  0  0  0  0  0  0  0
   13.0520   -1.2072   31.8136 C   0  0  0  0  0  0  0  0  0  0  0  0
   12.4334   -2.4849   32.1442 C   0  0  0  0  0  0  0  0  0  0  0  0
   12.5311   -3.4079   31.6003 O   0  0  0  0  0  0  0  0  0  0  0  0
   11.3127   -2.3578   33.0082 N   0  0  0  0  0  0  0  0  0  0  0  0
   14.6075    2.7603   30.8290 C   0  0  0  0  0  0  0  0  0  0  0  0
   12.8442    2.3366   33.1579 C   0  0  0  0  0  0  0  0  0  0  0  0
   11.0210   -1.2126   33.7050 C   0  0  0  0  0  0  0  0  0  0  0  0
   15.4106    0.4689   29.2584 C   0  0  0  0  0  0  0  0  0  0  0  0
   10.7633   -3.7175   33.3607 C   0  0  0  0  0  0  0  0  0  0  0  0
   12.7099   -0.0604   32.5771 C   0  0  0  0  0  0  0  0  0  0  0  0
   11.6810   -0.0793   33.5227 C   0  0  0  0  0  0  0  0  0  0  0  0
   13.5461    3.6204   32.6838 C   0  0  0  0  0  0  0  0  0  0  0  0
   14.3174    3.6934   31.5505 C   0  0  0  0  0  0  0  0  0  0  0  0
   10.9470   -4.6943   32.6071 O   0  0  0  0  0  0  0  0  0  0  0  0
   10.1325   -3.9678   34.6407 O   0  0  0  0  0  0  0  0  0  0  0  0
  1  2  2  0
  2  3  1  0
  3  4  2  0
  1  5  1  0
  5  6  1  0
  6  7  2  0
  6  8  1  0
  3  9  1  0
  4 10  1  0
  8 11  1  0
  2 12  1  0
  8 13  1  0
  4 14  1  0
  5 14  2  0
 11 15  2  0
 14 15  1  0
 10 16  2  0
  9 17  2  0
 16 17  1  0
 13 18  2  0
 13 19  1  0
M  END
>  <ID>  (1) 
conformer_0

$$$$
