
     RDKit          3D

 19 22  0  0  0  0  0  0  0  0999 V2000
   14.3325   -1.7294   30.5587 O   0  0  0  0  0  0  0  0  0  0  0  0
   14.2645   -0.4457   30.5628 C   0  0  0  0  0  0  0  0  0  0  0  0
   13.6298    0.1352   31.5787 C   0  0  0  0  0  0  0  0  0  0  0  0
   13.5857   -2.1902   31.5956 C   0  0  0  0  0  0  0  0  0  0  0  0
   13.0587   -1.0550   32.1828 N   0  0  0  0  0  0  0  0  0  0  0  0
   12.8562   -3.3549   31.7008 C   0  0  0  0  0  0  0  0  0  0  0  0
   11.8565   -3.0363   32.6656 C   0  0  0  0  0  0  0  0  0  0  0  0
   13.4174    1.4049   32.0005 C   0  0  0  0  0  0  0  0  0  0  0  0
   12.5772    1.7969   33.0055 C   0  0  0  0  0  0  0  0  0  0  0  0
   15.0097    0.5189   29.6045 C   0  0  0  0  0  0  0  0  0  0  0  0
   14.8965    1.7557   29.8022 C   0  0  0  0  0  0  0  0  0  0  0  0
   11.1932    1.3530   32.8571 C   0  0  0  0  0  0  0  0  0  0  0  0
   15.5067    2.6479   28.9688 F   0  0  0  0  0  0  0  0  0  0  0  0
   14.1146    2.2904   30.9343 C   0  0  0  0  0  0  0  0  0  0  0  0
   10.5299    0.9464   33.8923 C   0  0  0  0  0  0  0  0  0  0  0  0
   10.2014   -0.4255   33.9982 O   0  0  0  0  0  0  0  0  0  0  0  0
   11.9680   -1.5738   33.0459 C   0  0  0  0  0  0  0  0  0  0  0  0
   11.7919   -3.8671   33.7801 O   0  0  0  0  0  0  0  0  0  0  0  0
   11.1907   -1.3149   34.1789 C   0  0  0  0  0  0  0  0  0  0  0  0
  1  2  1  0
  2  3  2  0
  1  4  1  0
  3  5  1  0
  4  5  1  0
  4  6  2  0
  6  7  1  0
  3  8  1  0
  8  9  1  0
  2 10  1  0
 10 11  2  0
  9 12  1  0
 11 13  1  0
  8 14  2  0
 11 14  1  0
 12 15  1  0
 15 16  1  0
  5 17  1  0
  7 17  1  0
  7 18  1  0
 16 19  1  0
 17 19  1  0
M  END
>  <ID>  (1) 
conformer_0

$$$$
