
     RDKit          3D

 17 18  0  0  0  0  0  0  0  0999 V2000
   14.9481   -0.3148   29.8155 C   0  0  0  0  0  0  0  0  0  0  0  0
   14.0587   -0.8651   30.7182 C   0  0  0  0  0  0  0  0  0  0  0  0
   13.4131    0.3205   31.4429 C   0  0  0  0  0  0  0  0  0  0  0  0
   13.8970   -2.0726   31.1671 N   0  0  0  0  0  0  0  0  0  0  0  0
   12.9981   -2.2836   32.1101 C   0  0  0  0  0  0  0  0  0  0  0  0
   12.5381   -3.6008   32.5466 C   0  0  0  0  0  0  0  0  0  0  0  0
   13.7997    1.5747   31.1846 C   0  0  0  0  0  0  0  0  0  0  0  0
   12.4640   -3.7156   33.8786 O   0  0  0  0  0  0  0  0  0  0  0  0
   13.1282    2.6673   31.9065 C   0  0  0  0  0  0  0  0  0  0  0  0
   14.6701    1.9027   30.1877 C   0  0  0  0  0  0  0  0  0  0  0  0
   11.7574    2.9301   31.5500 C   0  0  0  0  0  0  0  0  0  0  0  0
   12.4706   -1.1864   32.9896 C   0  0  0  0  0  0  0  0  0  0  0  0
   12.5420   -0.0487   32.4604 C   0  0  0  0  0  0  0  0  0  0  0  0
   11.4161   -4.0993   31.7856 O   0  0  0  0  0  0  0  0  0  0  0  0
   15.2560    0.9285   29.4886 C   0  0  0  0  0  0  0  0  0  0  0  0
   10.9544    3.6046   32.1773 O   0  0  0  0  0  0  0  0  0  0  0  0
   11.3612    2.3583   30.4647 O   0  0  0  0  0  0  0  0  0  0  0  0
  1  2  2  0
  2  3  1  0
  2  4  1  0
  4  5  2  0
  5  6  1  0
  3  7  2  0
  6  8  1  0
  7  9  1  0
  7 10  1  0
  9 11  1  0
  5 12  1  0
  3 13  1  0
 12 13  2  0
  6 14  2  0
  1 15  1  0
 10 15  2  0
 11 16  2  0
 11 17  1  0
M  END
>  <ID>  (1) 
conformer_0

$$$$
