
     RDKit          3D

 13 14  0  0  0  0  0  0  0  0999 V2000
   14.9481   -0.3148   29.8155 C   0  0  0  0  0  0  0  0  0  0  0  0
   14.0587   -0.8651   30.7182 C   0  0  0  0  0  0  0  0  0  0  0  0
   13.4131    0.3205   31.4429 C   0  0  0  0  0  0  0  0  0  0  0  0
   13.8970   -2.0726   31.1671 N   0  0  0  0  0  0  0  0  0  0  0  0
   12.9981   -2.2836   32.1101 C   0  0  0  0  0  0  0  0  0  0  0  0
   12.5381   -3.6008   32.5466 C   0  0  0  0  0  0  0  0  0  0  0  0
   12.4501   -3.6808   33.8952 O   0  0  0  0  0  0  0  0  0  0  0  0
   12.4451   -0.0237   32.3301 C   0  0  0  0  0  0  0  0  0  0  0  0
   13.7984    1.5119   30.9411 C   0  0  0  0  0  0  0  0  0  0  0  0
   12.1990   -1.2977   32.6706 C   0  0  0  0  0  0  0  0  0  0  0  0
   14.6705    1.8253   30.0370 C   0  0  0  0  0  0  0  0  0  0  0  0
   15.3204    0.8440   29.4134 C   0  0  0  0  0  0  0  0  0  0  0  0
   12.0032   -4.3424   31.7616 O   0  0  0  0  0  0  0  0  0  0  0  0
  1  2  2  0
  2  3  1  0
  2  4  1  0
  4  5  2  0
  5  6  1  0
  6  7  1  0
  3  8  1  0
  3  9  2  0
  5 10  1  0
  8 10  2  0
  9 11  1  0
  1 12  1  0
 11 12  2  0
  6 13  2  0
M  END
>  <ID>  (1) 
conformer_0

$$$$
