
     RDKit          3D

 20 23  0  0  0  0  0  0  0  0999 V2000
   14.9481   -0.3148   29.8155 C   0  0  0  0  0  0  0  0  0  0  0  0
   14.0587   -0.8651   30.7182 C   0  0  0  0  0  0  0  0  0  0  0  0
   13.4131    0.3205   31.4429 C   0  0  0  0  0  0  0  0  0  0  0  0
   13.8970   -2.0726   31.1671 N   0  0  0  0  0  0  0  0  0  0  0  0
   12.9981   -2.2836   32.1101 C   0  0  0  0  0  0  0  0  0  0  0  0
   12.5381   -3.6008   32.5466 C   0  0  0  0  0  0  0  0  0  0  0  0
   13.7997    1.5747   31.1846 C   0  0  0  0  0  0  0  0  0  0  0  0
   12.4640   -3.7156   33.8786 O   0  0  0  0  0  0  0  0  0  0  0  0
   13.1282    2.6673   31.9065 C   0  0  0  0  0  0  0  0  0  0  0  0
   13.4592    3.8832   31.8093 C   0  0  0  0  0  0  0  0  0  0  0  0
   14.8331    1.9338   30.3325 C   0  0  0  0  0  0  0  0  0  0  0  0
   12.0513    2.2037   32.7646 C   0  0  0  0  0  0  0  0  0  0  0  0
   12.5127    4.7306   32.7446 C   0  0  0  0  0  0  0  0  0  0  0  0
   15.3697    0.9633   29.5546 C   0  0  0  0  0  0  0  0  0  0  0  0
   11.2557   -3.9999   31.9265 O   0  0  0  0  0  0  0  0  0  0  0  0
   11.5265    0.8237   32.8008 C   0  0  0  0  0  0  0  0  0  0  0  0
   12.3991   -0.1157   32.2690 C   0  0  0  0  0  0  0  0  0  0  0  0
   12.1192   -1.3852   32.5802 C   0  0  0  0  0  0  0  0  0  0  0  0
   11.1809    3.1157   33.4041 C   0  0  0  0  0  0  0  0  0  0  0  0
   11.5298    4.4015   33.4112 C   0  0  0  0  0  0  0  0  0  0  0  0
  1  2  2  0
  2  3  1  0
  2  4  1  0
  4  5  2  0
  5  6  1  0
  3  7  2  0
  6  8  1  0
  7  9  1  0
  9 10  2  0
  7 11  1  0
  9 12  1  0
 10 13  1  0
  1 14  1  0
 11 14  2  0
  6 15  1  0
 12 16  1  0
  3 17  1  0
 16 17  1  0
  5 18  1  0
 17 18  2  0
 12 19  2  0
 13 20  2  0
 19 20  1  0
M  END
>  <ID>  (1) 
conformer_0

$$$$
