
     RDKit          3D

 16 18  0  0  0  0  0  0  0  0999 V2000
   15.2464    0.4827   29.2378 C   0  0  0  0  0  0  0  0  0  0  0  0
   14.5327    0.9184   30.3537 C   0  0  0  0  0  0  0  0  0  0  0  0
   14.4109    2.2922   30.6708 C   0  0  0  0  0  0  0  0  0  0  0  0
   13.9148   -0.0103   31.1703 C   0  0  0  0  0  0  0  0  0  0  0  0
   14.0458   -1.4034   30.9766 N   0  0  0  0  0  0  0  0  0  0  0  0
   13.0703    0.2184   32.3137 C   0  0  0  0  0  0  0  0  0  0  0  0
   13.3020   -2.0929   31.9220 C   0  0  0  0  0  0  0  0  0  0  0  0
   13.1189   -3.3784   32.1065 C   0  0  0  0  0  0  0  0  0  0  0  0
   12.7092    1.5240   32.7694 C   0  0  0  0  0  0  0  0  0  0  0  0
   12.5817   -1.0114   32.7352 C   0  0  0  0  0  0  0  0  0  0  0  0
   11.7719   -1.4383   33.7454 C   0  0  0  0  0  0  0  0  0  0  0  0
   11.4515   -2.8593   33.8465 C   0  0  0  0  0  0  0  0  0  0  0  0
   13.4693    2.5657   31.8704 C   0  0  0  0  0  0  0  0  0  0  0  0
   12.0518   -3.7392   33.0114 C   0  0  0  0  0  0  0  0  0  0  0  0
   10.4482   -3.2178   34.7008 O   0  0  0  0  0  0  0  0  0  0  0  0
   11.1006   -4.6742   32.3910 O   0  0  0  0  0  0  0  0  0  0  0  0
  1  2  1  0
  2  3  1  0
  2  4  2  0
  4  5  1  0
  4  6  1  0
  5  7  2  0
  7  8  1  0
  6  9  2  0
  6 10  1  0
  7 10  1  0
 10 11  2  0
 11 12  1  0
  3 13  2  0
  9 13  1  0
  8 14  1  0
 12 14  1  0
 12 15  1  0
 14 16  1  0
M  END
>  <ID>  (1) 
conformer_0

$$$$
