
     RDKit          3D

 20 21  0  0  0  0  0  0  0  0999 V2000
   14.9481   -0.3148   29.8155 C   0  0  0  0  0  0  0  0  0  0  0  0
   14.0587   -0.8651   30.7182 C   0  0  0  0  0  0  0  0  0  0  0  0
   13.4131    0.3205   31.4429 C   0  0  0  0  0  0  0  0  0  0  0  0
   13.8970   -2.0726   31.1671 N   0  0  0  0  0  0  0  0  0  0  0  0
   12.9981   -2.2836   32.1101 C   0  0  0  0  0  0  0  0  0  0  0  0
   12.5381   -3.6008   32.5466 C   0  0  0  0  0  0  0  0  0  0  0  0
   13.7997    1.5747   31.1846 C   0  0  0  0  0  0  0  0  0  0  0  0
   12.4640   -3.7156   33.8786 O   0  0  0  0  0  0  0  0  0  0  0  0
   13.1282    2.6673   31.9065 C   0  0  0  0  0  0  0  0  0  0  0  0
   13.4592    3.8832   31.8093 C   0  0  0  0  0  0  0  0  0  0  0  0
   11.2079   -3.9369   31.9280 C   0  0  0  0  0  0  0  0  0  0  0  0
   10.8043   -5.0197   31.7953 O   0  0  0  0  0  0  0  0  0  0  0  0
   14.8925    1.9193   30.3096 C   0  0  0  0  0  0  0  0  0  0  0  0
   12.3174   -1.1888   32.8079 C   0  0  0  0  0  0  0  0  0  0  0  0
   12.8006    4.9446   32.5624 C   0  0  0  0  0  0  0  0  0  0  0  0
   13.1627    6.1573   32.6018 O   0  0  0  0  0  0  0  0  0  0  0  0
   12.5433    0.0942   32.4269 C   0  0  0  0  0  0  0  0  0  0  0  0
   11.3466    4.7672   32.4123 O   0  0  0  0  0  0  0  0  0  0  0  0
   15.3625    0.9589   29.5587 C   0  0  0  0  0  0  0  0  0  0  0  0
   10.2946   -2.9590   32.0963 O   0  0  0  0  0  0  0  0  0  0  0  0
  1  2  2  0
  2  3  1  0
  2  4  1  0
  4  5  2  0
  5  6  1  0
  3  7  2  0
  6  8  1  0
  7  9  1  0
  9 10  2  3
  6 11  1  0
 11 12  1  0
  7 13  1  0
  5 14  1  0
 10 15  1  0
 15 16  1  0
  3 17  1  0
 14 17  2  0
 15 18  2  0
  1 19  1  0
 13 19  2  0
 11 20  2  0
M  END
>  <ID>  (1) 
conformer_0

$$$$
