
     RDKit          3D

 20 22  0  0  0  0  0  0  0  0999 V2000
   14.0046   -2.7970   31.1118 O   0  0  0  0  0  0  0  0  0  0  0  0
   13.1383   -2.0811   31.9742 C   0  0  0  0  0  0  0  0  0  0  0  0
   13.0777   -0.7615   31.8185 C   0  0  0  0  0  0  0  0  0  0  0  0
   12.3515   -2.8720   32.9075 C   0  0  0  0  0  0  0  0  0  0  0  0
   12.0821   -0.0110   32.5694 C   0  0  0  0  0  0  0  0  0  0  0  0
   10.9450   -2.3628   33.0732 C   0  0  0  0  0  0  0  0  0  0  0  0
   11.8862    1.2730   32.4271 C   0  0  0  0  0  0  0  0  0  0  0  0
   11.2208   -0.8109   33.5271 C   0  0  0  0  0  0  0  0  0  0  0  0
   12.1841   -4.3040   32.6195 O   0  0  0  0  0  0  0  0  0  0  0  0
   10.7541    1.9751   33.0267 C   0  0  0  0  0  0  0  0  0  0  0  0
   12.8343    2.0130   31.6648 C   0  0  0  0  0  0  0  0  0  0  0  0
   13.9574   -0.0373   31.0598 C   0  0  0  0  0  0  0  0  0  0  0  0
   10.1913   -2.3237   31.8971 C   0  0  0  0  0  0  0  0  0  0  0  0
    9.6536    1.7120   32.9609 O   0  0  0  0  0  0  0  0  0  0  0  0
   12.6574    3.4334   31.5072 C   0  0  0  0  0  0  0  0  0  0  0  0
   13.8084    1.3199   30.9156 C   0  0  0  0  0  0  0  0  0  0  0  0
   10.9463    3.4525   33.1187 C   0  0  0  0  0  0  0  0  0  0  0  0
   11.8601    4.0688   32.3671 C   0  0  0  0  0  0  0  0  0  0  0  0
   14.8743    1.9208   30.0118 C   0  0  0  0  0  0  0  0  0  0  0  0
   10.2464   -2.8942   34.1767 C   0  0  0  0  0  0  0  0  0  0  0  0
  1  2  1  0
  2  3  1  0
  2  4  1  0
  3  5  1  0
  4  6  1  0
  5  7  2  0
  5  8  1  0
  6  8  1  0
  4  9  1  0
  7 10  1  0
  7 11  1  0
  3 12  2  0
  6 13  1  0
 10 14  2  0
 11 15  1  0
 11 16  2  0
 12 16  1  0
 10 17  1  0
 15 18  1  0
 17 18  2  0
 16 19  1  0
  6 20  1  0
M  END
>  <ID>  (1) 
conformer_0

$$$$
