
     RDKit          3D

 17 18  0  0  0  0  0  0  0  0999 V2000
   13.8909   -0.9600   30.6971 C   0  0  0  0  0  0  0  0  0  0  0  0
   13.2075   -0.9866   31.6611 N   0  0  0  0  0  0  0  0  0  0  0  0
   14.3740    0.4109   30.3354 C   0  0  0  0  0  0  0  0  0  0  0  0
   14.6035   -2.0096   30.5475 O   0  0  0  0  0  0  0  0  0  0  0  0
   12.7720   -2.3015   32.2732 C   0  0  0  0  0  0  0  0  0  0  0  0
   12.7529   -2.3114   33.6309 C   0  0  0  0  0  0  0  0  0  0  0  0
   11.3537   -2.6522   31.7603 O   0  0  0  0  0  0  0  0  0  0  0  0
   12.5883    0.2260   32.0319 C   0  0  0  0  0  0  0  0  0  0  0  0
   13.7998    1.5005   30.7349 C   0  0  0  0  0  0  0  0  0  0  0  0
   15.4346    0.4905   29.3195 C   0  0  0  0  0  0  0  0  0  0  0  0
   14.1276    2.7858   30.2848 C   0  0  0  0  0  0  0  0  0  0  0  0
   12.9299    1.3153   31.7173 C   0  0  0  0  0  0  0  0  0  0  0  0
   10.8310   -3.6707   32.5700 C   0  0  0  0  0  0  0  0  0  0  0  0
   11.6363   -3.2578   33.9711 C   0  0  0  0  0  0  0  0  0  0  0  0
   13.8199   -2.7863   34.4555 O   0  0  0  0  0  0  0  0  0  0  0  0
    9.5561   -3.5698   32.7206 O   0  0  0  0  0  0  0  0  0  0  0  0
   10.5962   -2.3700   34.7712 O   0  0  0  0  0  0  0  0  0  0  0  0
  1  2  1  0
  1  3  1  0
  1  4  2  0
  2  5  1  0
  5  6  1  0
  5  7  1  0
  2  8  1  0
  3  9  2  0
  3 10  1  0
  9 11  1  0
  8 12  2  0
  9 12  1  0
  7 13  1  0
  6 14  1  0
 13 14  1  0
  6 15  1  0
 13 16  1  0
 14 17  1  0
M  END
>  <ID>  (1) 
conformer_0

$$$$
