
     RDKit          3D

 14 14  0  0  0  0  0  0  0  0999 V2000
   13.8909   -0.9600   30.6971 C   0  0  0  0  0  0  0  0  0  0  0  0
   14.3429    0.2114   30.3848 C   0  0  0  0  0  0  0  0  0  0  0  0
   14.0715    1.3167   31.2726 C   0  0  0  0  0  0  0  0  0  0  0  0
   13.2048    1.2034   32.3268 C   0  0  0  0  0  0  0  0  0  0  0  0
   13.0520   -1.2072   31.8136 C   0  0  0  0  0  0  0  0  0  0  0  0
   12.4334   -2.4849   32.1442 C   0  0  0  0  0  0  0  0  0  0  0  0
   12.5311   -3.4079   31.6003 O   0  0  0  0  0  0  0  0  0  0  0  0
   11.3127   -2.3578   33.0082 N   0  0  0  0  0  0  0  0  0  0  0  0
   14.6075    2.7603   30.8290 C   0  0  0  0  0  0  0  0  0  0  0  0
   12.6711   -0.1022   32.6399 C   0  0  0  0  0  0  0  0  0  0  0  0
   15.3173    0.4169   29.2429 C   0  0  0  0  0  0  0  0  0  0  0  0
   10.5496   -3.6248   33.3591 C   0  0  0  0  0  0  0  0  0  0  0  0
    9.7188   -3.5083   34.4364 C   0  0  0  0  0  0  0  0  0  0  0  0
   10.4255   -4.4585   32.5261 O   0  0  0  0  0  0  0  0  0  0  0  0
  1  2  2  0
  2  3  1  0
  3  4  2  0
  1  5  1  0
  5  6  1  0
  6  7  2  0
  6  8  1  0
  3  9  1  0
  4 10  1  0
  5 10  2  0
  2 11  1  0
  8 12  1  0
 12 13  1  0
 12 14  2  0
M  END
>  <ID>  (1) 
conformer_0

$$$$
