
     RDKit          3D

 19 21  0  0  0  0  0  0  0  0999 V2000
   15.2464    0.4827   29.2378 C   0  0  0  0  0  0  0  0  0  0  0  0
   14.5616   -0.3842   30.0074 C   0  0  0  0  0  0  0  0  0  0  0  0
   15.1674    1.8503   29.5356 C   0  0  0  0  0  0  0  0  0  0  0  0
   13.8415    0.0220   31.0947 C   0  0  0  0  0  0  0  0  0  0  0  0
   13.8944    1.5341   31.2738 C   0  0  0  0  0  0  0  0  0  0  0  0
   13.2422   -0.8005   32.0275 C   0  0  0  0  0  0  0  0  0  0  0  0
   13.0687    1.9670   32.4291 C   0  0  0  0  0  0  0  0  0  0  0  0
   13.4015   -2.1620   32.1514 C   0  0  0  0  0  0  0  0  0  0  0  0
   14.5157    2.3532   30.5208 C   0  0  0  0  0  0  0  0  0  0  0  0
   12.6649    3.3009   32.4948 C   0  0  0  0  0  0  0  0  0  0  0  0
   12.5480   -0.3729   33.0572 C   0  0  0  0  0  0  0  0  0  0  0  0
   12.3054    1.0946   33.2000 C   0  0  0  0  0  0  0  0  0  0  0  0
   11.9407   -1.4127   33.7847 O   0  0  0  0  0  0  0  0  0  0  0  0
   12.4792   -2.5572   33.1611 C   0  0  0  0  0  0  0  0  0  0  0  0
   11.2500   -3.4274   32.6641 C   0  0  0  0  0  0  0  0  0  0  0  0
   13.2303    3.9493   33.4592 O   0  0  0  0  0  0  0  0  0  0  0  0
   11.3640   -4.3234   31.8663 O   0  0  0  0  0  0  0  0  0  0  0  0
   11.6493    3.8776   31.9262 O   0  0  0  0  0  0  0  0  0  0  0  0
   10.2188   -3.2562   33.4559 O   0  0  0  0  0  0  0  0  0  0  0  0
  1  2  1  0
  1  3  2  0
  2  4  2  0
  4  5  1  0
  4  6  1  0
  5  7  1  0
  6  8  1  0
  3  9  1  0
  5  9  2  0
  7 10  1  0
  6 11  2  0
  7 12  2  0
 11 12  1  0
 11 13  1  0
  8 14  1  0
 13 14  1  0
 14 15  1  0
 10 16  2  0
 15 17  2  0
 10 18  1  0
 15 19  1  0
M  END
>  <ID>  (1) 
conformer_0

$$$$
