
     RDKit          3D

 17 19  0  0  0  0  0  0  0  0999 V2000
   13.8909   -0.9600   30.6971 C   0  0  0  0  0  0  0  0  0  0  0  0
   13.2075   -0.9866   31.6611 N   0  0  0  0  0  0  0  0  0  0  0  0
   14.3740    0.4109   30.3354 C   0  0  0  0  0  0  0  0  0  0  0  0
   14.6035   -2.0096   30.5475 O   0  0  0  0  0  0  0  0  0  0  0  0
   12.7720   -2.3015   32.2732 C   0  0  0  0  0  0  0  0  0  0  0  0
   13.7874    1.5323   30.8749 C   0  0  0  0  0  0  0  0  0  0  0  0
   11.2827   -2.5331   31.9411 C   0  0  0  0  0  0  0  0  0  0  0  0
   13.1861   -2.9338   33.2344 C   0  0  0  0  0  0  0  0  0  0  0  0
   14.0956    2.7844   30.3696 C   0  0  0  0  0  0  0  0  0  0  0  0
   15.3388    0.4934   29.3176 C   0  0  0  0  0  0  0  0  0  0  0  0
   13.0135    1.4173   32.1242 N   0  0  0  0  0  0  0  0  0  0  0  0
   12.3716   -3.9424   33.6239 N   0  0  0  0  0  0  0  0  0  0  0  0
   14.9843    2.8391   29.3646 C   0  0  0  0  0  0  0  0  0  0  0  0
   11.1727   -3.8119   32.9463 C   0  0  0  0  0  0  0  0  0  0  0  0
   12.7589    0.2217   32.4363 C   0  0  0  0  0  0  0  0  0  0  0  0
   10.6116   -4.8947   32.3196 O   0  0  0  0  0  0  0  0  0  0  0  0
   15.5378    1.7389   28.7743 C   0  0  0  0  0  0  0  0  0  0  0  0
  1  2  1  0
  1  3  1  0
  1  4  2  0
  2  5  1  0
  3  6  2  0
  5  7  1  0
  5  8  2  0
  6  9  1  0
  3 10  1  0
  6 11  1  0
  8 12  1  0
  9 13  2  0
  7 14  1  0
 12 14  1  0
  2 15  1  0
 11 15  2  0
 14 16  2  0
 10 17  2  0
 13 17  1  0
M  END
>  <ID>  (1) 
conformer_0

$$$$
