
     RDKit          3D

 18 19  0  0  0  0  0  0  0  0999 V2000
   10.5388   -4.7336   33.1193 O   0  0  0  0  0  0  0  0  0  0  0  0
   11.2405   -3.5915   32.7587 P   0  0  0  0  0  0  0  0  0  0  0  0
   11.4434   -2.6484   33.7501 O   0  0  0  0  0  0  0  0  0  0  0  0
   11.9856   -1.2541   33.4239 C   0  0  0  0  0  0  0  0  0  0  0  0
   11.4213   -0.7001   32.3773 C   0  0  0  0  0  0  0  0  0  0  0  0
   10.6680   -2.9478   31.5140 O   0  0  0  0  0  0  0  0  0  0  0  0
   12.2449    0.4108   31.9906 C   0  0  0  0  0  0  0  0  0  0  0  0
   13.4303    0.1607   31.1880 C   0  0  0  0  0  0  0  0  0  0  0  0
   13.8867   -1.2585   30.9200 C   0  0  0  0  0  0  0  0  0  0  0  0
   14.9061   -1.3703   30.0805 N   0  0  0  0  0  0  0  0  0  0  0  0
   14.3718    1.1535   30.8383 C   0  0  0  0  0  0  0  0  0  0  0  0
   13.2128   -2.3338   31.1389 O   0  0  0  0  0  0  0  0  0  0  0  0
   15.4942    0.0094   29.7195 C   0  0  0  0  0  0  0  0  0  0  0  0
   15.2761    1.1121   30.0581 C   0  0  0  0  0  0  0  0  0  0  0  0
   11.9270    1.7526   32.1602 C   0  0  0  0  0  0  0  0  0  0  0  0
   12.6605   -4.1644   32.5661 O   0  0  0  0  0  0  0  0  0  0  0  0
   13.9858    2.5975   31.3510 C   0  0  0  0  0  0  0  0  0  0  0  0
   12.7676    2.7891   31.9893 C   0  0  0  0  0  0  0  0  0  0  0  0
  1  2  1  0
  2  3  1  0
  3  4  1  0
  4  5  1  0
  2  6  1  0
  5  7  1  0
  7  8  2  0
  8  9  1  0
  9 10  1  0
  8 11  1  0
  9 12  2  0
 10 13  2  0
 11 14  2  0
 13 14  1  0
  7 15  1  0
  2 16  2  0
 11 17  1  0
 15 18  1  0
 17 18  2  0
M  END
>  <ID>  (1) 
conformer_0

$$$$
