
     RDKit          3D

 20 21  0  0  0  0  0  0  0  0999 V2000
   13.4653   -2.6345   31.1162 O   0  0  0  0  0  0  0  0  0  0  0  0
   12.6304   -2.7167   32.3579 P   0  0  0  0  0  0  0  0  0  0  0  0
   11.2310   -3.0757   32.0727 O   0  0  0  0  0  0  0  0  0  0  0  0
   12.4564   -1.0676   32.7103 O   0  0  0  0  0  0  0  0  0  0  0  0
   13.2983   -3.3977   33.5152 O   0  0  0  0  0  0  0  0  0  0  0  0
   11.3494   -0.3484   32.3527 C   0  0  0  0  0  0  0  0  0  0  0  0
   11.5809    1.0770   32.3525 C   0  0  0  0  0  0  0  0  0  0  0  0
   10.6592    1.9632   32.5409 C   0  0  0  0  0  0  0  0  0  0  0  0
   10.4136   -4.3278   32.6145 P   0  0  0  0  0  0  0  0  0  0  0  0
   12.9466    1.4118   32.0139 C   0  0  0  0  0  0  0  0  0  0  0  0
    9.6669   -3.8460   33.7882 O   0  0  0  0  0  0  0  0  0  0  0  0
   14.0097    0.5175   31.6719 O   0  0  0  0  0  0  0  0  0  0  0  0
   13.4380    2.7525   31.9415 C   0  0  0  0  0  0  0  0  0  0  0  0
    9.7663   -5.0260   31.5980 O   0  0  0  0  0  0  0  0  0  0  0  0
   11.0802    3.3572   32.5443 C   0  0  0  0  0  0  0  0  0  0  0  0
   14.8043    1.0179   30.5850 C   0  0  0  0  0  0  0  0  0  0  0  0
   14.9807    2.2713   30.4197 C   0  0  0  0  0  0  0  0  0  0  0  0
   11.6148   -5.2373   33.1959 O   0  0  0  0  0  0  0  0  0  0  0  0
   12.4834    3.6945   32.2760 C   0  0  0  0  0  0  0  0  0  0  0  0
   14.2566    3.2259   31.0582 O   0  0  0  0  0  0  0  0  0  0  0  0
  1  2  2  0
  2  3  1  0
  2  4  1  0
  2  5  1  0
  4  6  1  0
  6  7  1  0
  7  8  1  0
  3  9  1  0
  7 10  2  0
  9 11  1  0
 10 12  1  0
 10 13  1  0
  9 14  2  0
  8 15  2  0
 12 16  1  0
 16 17  2  0
  9 18  1  0
 13 19  2  0
 15 19  1  0
 13 20  1  0
 17 20  1  0
M  END
>  <ID>  (1) 
conformer_0

$$$$
