
     RDKit          3D

 16 18  0  0  0  0  0  0  0  0999 V2000
   14.3325   -1.7294   30.5587 O   0  0  0  0  0  0  0  0  0  0  0  0
   14.2645   -0.4457   30.5628 C   0  0  0  0  0  0  0  0  0  0  0  0
   13.6298    0.1352   31.5787 C   0  0  0  0  0  0  0  0  0  0  0  0
   13.5857   -2.1902   31.5956 C   0  0  0  0  0  0  0  0  0  0  0  0
   13.0587   -1.0550   32.1828 N   0  0  0  0  0  0  0  0  0  0  0  0
   12.8562   -3.3549   31.7008 C   0  0  0  0  0  0  0  0  0  0  0  0
   11.8565   -3.0363   32.6656 C   0  0  0  0  0  0  0  0  0  0  0  0
   15.0199    0.5128   29.5873 C   0  0  0  0  0  0  0  0  0  0  0  0
   14.9831    1.8135   29.7646 C   0  0  0  0  0  0  0  0  0  0  0  0
   10.9141   -3.9474   33.2083 C   0  0  0  0  0  0  0  0  0  0  0  0
   11.9954   -1.5925   33.0384 C   0  0  0  0  0  0  0  0  0  0  0  0
   10.6902   -5.0059   32.6143 O   0  0  0  0  0  0  0  0  0  0  0  0
   10.3942   -3.8382   34.3600 O   0  0  0  0  0  0  0  0  0  0  0  0
   13.5046    1.4929   31.8273 C   0  0  0  0  0  0  0  0  0  0  0  0
   15.6130    2.6770   28.9756 F   0  0  0  0  0  0  0  0  0  0  0  0
   14.2052    2.3189   30.8828 C   0  0  0  0  0  0  0  0  0  0  0  0
  1  2  1  0
  2  3  2  0
  1  4  1  0
  3  5  1  0
  4  5  1  0
  4  6  2  0
  6  7  1  0
  2  8  1  0
  8  9  2  0
  7 10  1  0
  5 11  1  0
  7 11  2  0
 10 12  2  0
 10 13  1  0
  3 14  1  0
  9 15  1  0
  9 16  1  0
 14 16  2  0
M  END
>  <ID>  (1) 
conformer_0

$$$$
