
     RDKit          3D

 15 16  0  0  0  0  0  0  0  0999 V2000
   15.4265    1.6399   29.6209 C   0  0  0  0  0  0  0  0  0  0  0  0
   14.5334    0.8276   30.2931 C   0  0  0  0  0  0  0  0  0  0  0  0
   13.9183    1.3612   31.2296 C   0  0  0  0  0  0  0  0  0  0  0  0
   12.9392    0.6519   32.0759 C   0  0  0  0  0  0  0  0  0  0  0  0
   11.8920    1.2243   32.6387 C   0  0  0  0  0  0  0  0  0  0  0  0
   14.6064   -0.5347   30.2417 N   0  0  0  0  0  0  0  0  0  0  0  0
   11.7061    2.5058   32.6688 C   0  0  0  0  0  0  0  0  0  0  0  0
   13.1826   -0.7719   32.1494 N   0  0  0  0  0  0  0  0  0  0  0  0
   10.5209    2.9631   33.3847 C   0  0  0  0  0  0  0  0  0  0  0  0
   10.1758    4.4200   33.3657 C   0  0  0  0  0  0  0  0  0  0  0  0
   13.9384   -1.2952   31.1139 C   0  0  0  0  0  0  0  0  0  0  0  0
    9.6434    2.0176   33.6035 C   0  0  0  0  0  0  0  0  0  0  0  0
   10.7684    0.2796   33.3133 C   0  0  0  0  0  0  0  0  0  0  0  0
    9.7936    0.7743   33.7885 N   0  0  0  0  0  0  0  0  0  0  0  0
   13.8527   -2.5744   31.3134 N   0  0  0  0  0  0  0  0  0  0  0  0
  1  2  1  0
  2  3  2  0
  3  4  1  0
  4  5  1  0
  2  6  1  0
  5  7  2  0
  4  8  2  0
  7  9  1  0
  9 10  1  0
  6 11  2  0
  8 11  1  0
  9 12  2  0
  5 13  1  0
 12 14  1  0
 13 14  2  0
 11 15  1  0
M  END
>  <ID>  (1) 
conformer_0

$$$$
