
     RDKit          3D

 20 22  0  0  0  0  0  0  0  0999 V2000
   14.0046   -2.7970   31.1118 O   0  0  0  0  0  0  0  0  0  0  0  0
   13.1383   -2.0811   31.9742 C   0  0  0  0  0  0  0  0  0  0  0  0
   13.0777   -0.7615   31.8185 C   0  0  0  0  0  0  0  0  0  0  0  0
   12.3515   -2.8720   32.9075 C   0  0  0  0  0  0  0  0  0  0  0  0
   12.0821   -0.0110   32.5694 C   0  0  0  0  0  0  0  0  0  0  0  0
   10.9450   -2.3628   33.0732 C   0  0  0  0  0  0  0  0  0  0  0  0
   12.2699   -4.2914   32.4839 O   0  0  0  0  0  0  0  0  0  0  0  0
   13.9592    0.0097   31.1603 C   0  0  0  0  0  0  0  0  0  0  0  0
   11.0716   -0.7581   33.2816 C   0  0  0  0  0  0  0  0  0  0  0  0
   13.6540    1.4205   31.1845 C   0  0  0  0  0  0  0  0  0  0  0  0
   10.0457   -0.1146   33.6143 O   0  0  0  0  0  0  0  0  0  0  0  0
   12.0100    1.3143   32.5531 C   0  0  0  0  0  0  0  0  0  0  0  0
   12.8179    2.0364   31.8282 C   0  0  0  0  0  0  0  0  0  0  0  0
   12.6739    3.4383   31.8403 C   0  0  0  0  0  0  0  0  0  0  0  0
   13.6859    4.1417   32.1771 O   0  0  0  0  0  0  0  0  0  0  0  0
   14.7430    2.1569   30.3573 C   0  0  0  0  0  0  0  0  0  0  0  0
   10.8049   -4.3274   32.0760 C   0  0  0  0  0  0  0  0  0  0  0  0
   11.9334    4.0290   30.9003 O   0  0  0  0  0  0  0  0  0  0  0  0
   15.8631    1.5480   29.8723 C   0  0  0  0  0  0  0  0  0  0  0  0
   10.2101   -2.7562   32.0617 O   0  0  0  0  0  0  0  0  0  0  0  0
  1  2  1  0
  2  3  1  0
  2  4  1  0
  3  5  1  0
  4  6  1  0
  4  7  1  0
  3  8  2  0
  5  9  1  0
  6  9  1  0
  8 10  1  0
  9 11  1  0
  5 12  2  0
 10 13  2  0
 12 13  1  0
 13 14  1  0
 14 15  1  0
 10 16  1  0
  7 17  1  0
 14 18  2  0
 16 19  1  0
  6 20  1  0
 17 20  1  0
M  END
>  <ID>  (1) 
conformer_0

$$$$
