
     RDKit          3D

 14 15  0  0  0  0  0  0  0  0999 V2000
   15.4265    1.6399   29.6209 C   0  0  0  0  0  0  0  0  0  0  0  0
   14.5334    0.8276   30.2931 C   0  0  0  0  0  0  0  0  0  0  0  0
   13.9183    1.3612   31.2296 C   0  0  0  0  0  0  0  0  0  0  0  0
   12.9392    0.6519   32.0759 C   0  0  0  0  0  0  0  0  0  0  0  0
   11.8920    1.2243   32.6387 C   0  0  0  0  0  0  0  0  0  0  0  0
   14.6064   -0.5347   30.2417 N   0  0  0  0  0  0  0  0  0  0  0  0
   11.7061    2.5058   32.6688 C   0  0  0  0  0  0  0  0  0  0  0  0
   13.1826   -0.7719   32.1494 N   0  0  0  0  0  0  0  0  0  0  0  0
   10.9498    0.2140   33.3261 C   0  0  0  0  0  0  0  0  0  0  0  0
   10.6129    3.0152   33.2568 C   0  0  0  0  0  0  0  0  0  0  0  0
    9.6612    2.1971   34.0025 C   0  0  0  0  0  0  0  0  0  0  0  0
   14.0074   -1.3271   31.0991 C   0  0  0  0  0  0  0  0  0  0  0  0
   14.1573   -2.5951   31.0342 O   0  0  0  0  0  0  0  0  0  0  0  0
    9.8825    0.8454   34.0269 C   0  0  0  0  0  0  0  0  0  0  0  0
  1  2  1  0
  2  3  2  0
  3  4  1  0
  4  5  1  0
  2  6  1  0
  5  7  2  0
  4  8  2  0
  5  9  1  0
  7 10  1  0
 10 11  2  0
  6 12  1  0
  8 12  1  0
 12 13  2  0
  9 14  2  0
 11 14  1  0
M  END
>  <ID>  (1) 
conformer_0

$$$$
