
     RDKit          3D

 18 20  0  0  0  0  0  0  0  0999 V2000
   14.3325   -1.7294   30.5587 O   0  0  0  0  0  0  0  0  0  0  0  0
   13.9859   -0.6148   31.0354 C   0  0  0  0  0  0  0  0  0  0  0  0
   13.0404   -0.5272   32.0518 N   0  0  0  0  0  0  0  0  0  0  0  0
   14.6623    0.6392   30.4955 C   0  0  0  0  0  0  0  0  0  0  0  0
   12.6435    0.7552   32.4572 C   0  0  0  0  0  0  0  0  0  0  0  0
   11.6478    0.7696   33.3268 O   0  0  0  0  0  0  0  0  0  0  0  0
   12.4308   -1.7556   32.5091 C   0  0  0  0  0  0  0  0  0  0  0  0
   13.1950    1.8941   31.9237 N   0  0  0  0  0  0  0  0  0  0  0  0
   12.7441    3.1830   32.3713 C   0  0  0  0  0  0  0  0  0  0  0  0
   13.1686   -2.6672   32.9847 C   0  0  0  0  0  0  0  0  0  0  0  0
   11.1168   -2.0142   32.3477 C   0  0  0  0  0  0  0  0  0  0  0  0
   15.6009    0.6409   29.3791 C   0  0  0  0  0  0  0  0  0  0  0  0
   10.6803   -3.2988   32.6452 C   0  0  0  0  0  0  0  0  0  0  0  0
   14.1629    1.9276   30.8980 C   0  0  0  0  0  0  0  0  0  0  0  0
   14.8098    2.9344   30.2436 C   0  0  0  0  0  0  0  0  0  0  0  0
   15.7471    2.0692   29.1255 C   0  0  0  0  0  0  0  0  0  0  0  0
   11.4099   -4.2243   33.2170 N   0  0  0  0  0  0  0  0  0  0  0  0
   12.7018   -3.9040   33.4215 N   0  0  0  0  0  0  0  0  0  0  0  0
  1  2  2  0
  2  3  1  0
  2  4  1  0
  3  5  1  0
  5  6  2  0
  3  7  1  0
  5  8  1  0
  8  9  1  0
  7 10  1  0
  7 11  2  0
  4 12  1  0
 11 13  1  0
  4 14  2  0
  8 14  1  0
 14 15  1  0
 12 16  1  0
 15 16  2  0
 13 17  2  0
 10 18  2  0
 17 18  1  0
M  END
>  <ID>  (1) 
conformer_0

$$$$
