
     RDKit          3D

 15 15  0  0  0  0  0  0  0  0999 V2000
   14.6329    1.3636   30.4895 C   0  0  0  0  0  0  0  0  0  0  0  0
   13.9337    1.6122   31.4782 C   0  0  0  0  0  0  0  0  0  0  0  0
   13.3199    0.4205   32.0473 C   0  0  0  0  0  0  0  0  0  0  0  0
   12.4151    0.5877   33.2192 O   0  0  0  0  0  0  0  0  0  0  0  0
   15.3484    2.4715   29.7563 O   0  0  0  0  0  0  0  0  0  0  0  0
   11.4019   -0.3906   33.4662 C   0  0  0  0  0  0  0  0  0  0  0  0
   11.0849   -1.1089   32.3843 O   0  0  0  0  0  0  0  0  0  0  0  0
   13.3890   -0.7724   31.5145 C   0  0  0  0  0  0  0  0  0  0  0  0
   14.7801    0.0976   29.8406 C   0  0  0  0  0  0  0  0  0  0  0  0
   10.8486   -2.5192   32.7162 C   0  0  0  0  0  0  0  0  0  0  0  0
   10.1651    0.3415   33.8507 C   0  0  0  0  0  0  0  0  0  0  0  0
   11.0441   -2.8745   34.0685 O   0  0  0  0  0  0  0  0  0  0  0  0
   14.2772   -0.9409   30.3757 N   0  0  0  0  0  0  0  0  0  0  0  0
   10.3410    1.7388   33.5500 O   0  0  0  0  0  0  0  0  0  0  0  0
   10.9263   -3.5572   31.7716 O   0  0  0  0  0  0  0  0  0  0  0  0
  1  2  2  0
  2  3  1  0
  3  4  1  0
  1  5  1  0
  4  6  1  0
  6  7  1  0
  3  8  2  0
  1  9  1  0
  7 10  1  0
  6 11  1  0
 10 12  1  0
  8 13  1  0
  9 13  2  0
 11 14  1  0
 10 15  2  0
M  END
>  <ID>  (1) 
conformer_0

$$$$
