
     RDKit          3D

 20 23  0  0  0  0  0  0  0  0999 V2000
   14.9481   -0.3148   29.8155 C   0  0  0  0  0  0  0  0  0  0  0  0
   14.0587   -0.8651   30.7182 C   0  0  0  0  0  0  0  0  0  0  0  0
   13.3970    0.3022   31.4180 C   0  0  0  0  0  0  0  0  0  0  0  0
   13.9345   -2.0787   31.1761 N   0  0  0  0  0  0  0  0  0  0  0  0
   12.4343   -0.1878   32.3425 C   0  0  0  0  0  0  0  0  0  0  0  0
   13.0304   -2.4224   32.0424 C   0  0  0  0  0  0  0  0  0  0  0  0
   12.2048   -1.4453   32.6553 C   0  0  0  0  0  0  0  0  0  0  0  0
   11.6253    0.9719   32.9344 N   0  0  0  0  0  0  0  0  0  0  0  0
   13.7303    1.6065   31.0556 C   0  0  0  0  0  0  0  0  0  0  0  0
   13.0393    2.6840   31.7591 C   0  0  0  0  0  0  0  0  0  0  0  0
   10.6231    0.7118   33.8414 C   0  0  0  0  0  0  0  0  0  0  0  0
   12.7745   -3.7687   32.3900 O   0  0  0  0  0  0  0  0  0  0  0  0
   13.2318    4.0329   31.5534 C   0  0  0  0  0  0  0  0  0  0  0  0
   11.2950   -1.9265   33.7370 O   0  0  0  0  0  0  0  0  0  0  0  0
   14.6662    1.8100   30.1245 C   0  0  0  0  0  0  0  0  0  0  0  0
   12.2701    4.9210   32.0521 C   0  0  0  0  0  0  0  0  0  0  0  0
   11.8973    2.2753   32.6243 C   0  0  0  0  0  0  0  0  0  0  0  0
   15.2492    0.9024   29.4792 C   0  0  0  0  0  0  0  0  0  0  0  0
   11.0396    3.2064   33.1322 C   0  0  0  0  0  0  0  0  0  0  0  0
   11.2744    4.5349   32.8939 C   0  0  0  0  0  0  0  0  0  0  0  0
  1  2  1  0
  2  3  2  0
  2  4  1  0
  3  5  1  0
  4  6  2  0
  5  7  2  0
  6  7  1  0
  5  8  1  0
  3  9  1  0
  9 10  2  0
  8 11  1  0
  6 12  1  0
 10 13  1  0
  7 14  1  0
  9 15  1  0
 13 16  2  0
  8 17  1  0
 10 17  1  0
  1 18  1  0
 15 18  1  0
 17 19  1  0
 16 20  1  0
 19 20  2  0
M  END
>  <ID>  (1) 
conformer_0

$$$$
