
     RDKit          3D

 19 20  0  0  0  0  0  0  0  0999 V2000
   13.8909   -0.9600   30.6971 C   0  0  0  0  0  0  0  0  0  0  0  0
   13.2075   -0.9866   31.6611 N   0  0  0  0  0  0  0  0  0  0  0  0
   14.3740    0.4109   30.3354 C   0  0  0  0  0  0  0  0  0  0  0  0
   14.6035   -2.0096   30.5475 O   0  0  0  0  0  0  0  0  0  0  0  0
   12.7720   -2.3015   32.2732 C   0  0  0  0  0  0  0  0  0  0  0  0
   12.7529   -2.3114   33.6309 C   0  0  0  0  0  0  0  0  0  0  0  0
   11.3537   -2.6522   31.7603 O   0  0  0  0  0  0  0  0  0  0  0  0
   12.5883    0.2260   32.0319 C   0  0  0  0  0  0  0  0  0  0  0  0
   13.7998    1.5005   30.7349 C   0  0  0  0  0  0  0  0  0  0  0  0
   10.7576   -3.5685   32.6126 P   0  0  0  0  0  0  0  0  0  0  0  0
    9.5788   -3.0558   33.2217 O   0  0  0  0  0  0  0  0  0  0  0  0
   12.8382    1.3605   31.6891 C   0  0  0  0  0  0  0  0  0  0  0  0
   12.1052    2.6082   32.1831 C   0  0  0  0  0  0  0  0  0  0  0  0
   12.5150    3.6418   32.2416 O   0  0  0  0  0  0  0  0  0  0  0  0
   10.7864    2.4022   32.4126 N   0  0  0  0  0  0  0  0  0  0  0  0
   13.6671   -2.9368   34.3770 O   0  0  0  0  0  0  0  0  0  0  0  0
   10.8852   -4.9619   32.0869 O   0  0  0  0  0  0  0  0  0  0  0  0
   11.5282   -3.1383   34.1241 O   0  0  0  0  0  0  0  0  0  0  0  0
   15.4897    0.4688   29.2856 C   0  0  0  0  0  0  0  0  0  0  0  0
  1  2  1  0
  1  3  1  0
  1  4  2  0
  2  5  1  0
  5  6  1  0
  5  7  1  0
  2  8  1  0
  3  9  2  0
  7 10  1  0
 10 11  1  0
  8 12  2  0
  9 12  1  0
 12 13  1  0
 13 14  2  0
 13 15  1  0
  6 16  1  0
 10 17  2  0
  6 18  1  0
 10 18  1  0
  3 19  1  0
M  END
>  <ID>  (1) 
conformer_0

$$$$
