
     RDKit          3D

 20 23  0  0  0  0  0  0  0  0999 V2000
   13.8909   -0.9600   30.6971 C   0  0  0  0  0  0  0  0  0  0  0  0
   13.2075   -0.9866   31.6611 N   0  0  0  0  0  0  0  0  0  0  0  0
   14.3740    0.4109   30.3354 C   0  0  0  0  0  0  0  0  0  0  0  0
   14.6035   -2.0096   30.5475 O   0  0  0  0  0  0  0  0  0  0  0  0
   12.7720   -2.3015   32.2732 C   0  0  0  0  0  0  0  0  0  0  0  0
   13.9444    1.4084   30.9690 C   0  0  0  0  0  0  0  0  0  0  0  0
   12.9196    1.3736   31.9394 C   0  0  0  0  0  0  0  0  0  0  0  0
   15.3770    0.4930   29.3654 C   0  0  0  0  0  0  0  0  0  0  0  0
   12.5108    0.1452   32.3528 C   0  0  0  0  0  0  0  0  0  0  0  0
   11.2802   -0.1713   32.9878 O   0  0  0  0  0  0  0  0  0  0  0  0
   11.2720   -1.3650   33.7389 C   0  0  0  0  0  0  0  0  0  0  0  0
   14.3444    2.7618   30.5788 C   0  0  0  0  0  0  0  0  0  0  0  0
   11.4810   -2.5642   32.8788 C   0  0  0  0  0  0  0  0  0  0  0  0
   15.8095    1.7773   28.9556 C   0  0  0  0  0  0  0  0  0  0  0  0
   10.5093   -2.6599   31.8203 O   0  0  0  0  0  0  0  0  0  0  0  0
   15.3064    2.8498   29.6033 C   0  0  0  0  0  0  0  0  0  0  0  0
   13.8465    3.5072   31.2376 N   0  0  0  0  0  0  0  0  0  0  0  0
    9.8287   -1.3936   34.2709 C   0  0  0  0  0  0  0  0  0  0  0  0
   12.7305    2.8381   32.3497 C   0  0  0  0  0  0  0  0  0  0  0  0
    9.6592   -0.3877   35.1106 O   0  0  0  0  0  0  0  0  0  0  0  0
  1  2  1  0
  1  3  1  0
  1  4  2  0
  2  5  1  0
  3  6  1  0
  6  7  2  0
  3  8  2  0
  2  9  1  0
  7  9  1  0
  9 10  1  0
 10 11  1  0
  6 12  1  0
  5 13  1  0
 11 13  1  0
  8 14  1  0
 13 15  1  0
 12 16  1  0
 14 16  2  0
 12 17  2  0
 11 18  1  0
  7 19  1  0
 17 19  1  0
 18 20  1  0
M  END
>  <ID>  (1) 
conformer_0

$$$$
