
     RDKit          3D

 20 22  0  0  0  0  0  0  0  0999 V2000
   14.0046   -2.7970   31.1118 O   0  0  0  0  0  0  0  0  0  0  0  0
   13.1383   -2.0811   31.9742 C   0  0  0  0  0  0  0  0  0  0  0  0
   13.0777   -0.7615   31.8185 C   0  0  0  0  0  0  0  0  0  0  0  0
   12.3515   -2.8720   32.9075 C   0  0  0  0  0  0  0  0  0  0  0  0
   12.0821   -0.0110   32.5694 C   0  0  0  0  0  0  0  0  0  0  0  0
   10.9450   -2.3628   33.0732 C   0  0  0  0  0  0  0  0  0  0  0  0
   11.8862    1.2730   32.4271 C   0  0  0  0  0  0  0  0  0  0  0  0
   11.2208   -0.8109   33.5271 C   0  0  0  0  0  0  0  0  0  0  0  0
   10.7837    2.0199   33.0097 C   0  0  0  0  0  0  0  0  0  0  0  0
   13.8528    0.1508   31.1037 C   0  0  0  0  0  0  0  0  0  0  0  0
   10.9381    2.6220   34.0419 O   0  0  0  0  0  0  0  0  0  0  0  0
   13.6035    1.5711   31.0075 C   0  0  0  0  0  0  0  0  0  0  0  0
   12.0453   -4.1733   32.2584 O   0  0  0  0  0  0  0  0  0  0  0  0
   14.9163   -0.2700   30.3179 N   0  0  0  0  0  0  0  0  0  0  0  0
   12.6348    2.1113   31.7076 C   0  0  0  0  0  0  0  0  0  0  0  0
   15.5908    0.5472   29.4649 C   0  0  0  0  0  0  0  0  0  0  0  0
   14.4162    2.4321   30.1873 C   0  0  0  0  0  0  0  0  0  0  0  0
    9.6796    1.9649   32.4575 O   0  0  0  0  0  0  0  0  0  0  0  0
   15.4035    1.8756   29.5042 C   0  0  0  0  0  0  0  0  0  0  0  0
   10.0879   -2.8002   33.8538 O   0  0  0  0  0  0  0  0  0  0  0  0
  1  2  1  0
  2  3  1  0
  2  4  1  0
  3  5  1  0
  4  6  1  0
  5  7  2  0
  5  8  1  0
  6  8  1  0
  7  9  1  0
  3 10  2  0
  9 11  2  0
 10 12  1  0
  4 13  1  0
 10 14  1  0
  7 15  1  0
 12 15  2  0
 14 16  2  0
 12 17  1  0
  9 18  1  0
 16 19  1  0
 17 19  2  0
  6 20  1  0
M  END
>  <ID>  (1) 
conformer_0

$$$$
