
     RDKit          3D

 18 21  0  0  0  0  0  0  0  0999 V2000
   14.8011   -0.1065   29.5835 C   0  0  0  0  0  0  0  0  0  0  0  0
   15.0475    1.1280   29.5711 C   0  0  0  0  0  0  0  0  0  0  0  0
   14.0775   -0.4733   30.7809 C   0  0  0  0  0  0  0  0  0  0  0  0
   14.6014    2.0173   30.5587 C   0  0  0  0  0  0  0  0  0  0  0  0
   13.8725    1.7513   31.4766 C   0  0  0  0  0  0  0  0  0  0  0  0
   13.5988    0.3461   31.6736 C   0  0  0  0  0  0  0  0  0  0  0  0
   12.8365   -0.1588   32.7714 O   0  0  0  0  0  0  0  0  0  0  0  0
   13.8946   -1.8988   31.1223 N   0  0  0  0  0  0  0  0  0  0  0  0
   12.9985   -2.2133   32.0480 C   0  0  0  0  0  0  0  0  0  0  0  0
   12.4653   -1.3511   32.8355 C   0  0  0  0  0  0  0  0  0  0  0  0
   11.4884   -1.7685   33.8444 C   0  0  0  0  0  0  0  0  0  0  0  0
   11.1024   -3.1487   33.6835 C   0  0  0  0  0  0  0  0  0  0  0  0
   12.8390   -3.6484   32.0809 O   0  0  0  0  0  0  0  0  0  0  0  0
   10.6523   -0.9259   34.4981 C   0  0  0  0  0  0  0  0  0  0  0  0
    9.9800   -3.5630   34.3299 C   0  0  0  0  0  0  0  0  0  0  0  0
    9.1863   -2.7578   35.0905 C   0  0  0  0  0  0  0  0  0  0  0  0
   11.7439   -4.0479   32.8999 N   0  0  0  0  0  0  0  0  0  0  0  0
    9.5342   -1.4104   35.1408 C   0  0  0  0  0  0  0  0  0  0  0  0
  1  2  2  0
  1  3  1  0
  2  4  1  0
  4  5  2  0
  3  6  2  0
  5  6  1  0
  6  7  1  0
  3  8  1  0
  8  9  1  0
  7 10  1  0
  9 10  2  0
 10 11  1  0
 11 12  1  0
  9 13  1  0
 11 14  2  0
 12 15  2  0
 15 16  1  0
 12 17  1  0
 13 17  1  0
 14 18  1  0
 16 18  2  0
M  END
>  <ID>  (1) 
conformer_0

$$$$
