
     RDKit          3D

 20 21  0  0  0  0  0  0  0  0999 V2000
   15.2424    1.0094   29.6190 C   0  0  0  0  0  0  0  0  0  0  0  0
   14.8476   -0.2168   29.8103 C   0  0  0  0  0  0  0  0  0  0  0  0
   13.9629   -0.3251   30.9588 C   0  0  0  0  0  0  0  0  0  0  0  0
   13.6854    1.0207   31.4904 C   0  0  0  0  0  0  0  0  0  0  0  0
   12.7477    1.1989   32.5737 N   0  0  0  0  0  0  0  0  0  0  0  0
   13.4062   -1.3912   31.5865 C   0  0  0  0  0  0  0  0  0  0  0  0
   12.3537   -1.3749   32.2619 O   0  0  0  0  0  0  0  0  0  0  0  0
   11.7509    2.1783   32.5286 C   0  0  0  0  0  0  0  0  0  0  0  0
   11.9513    3.4638   32.3385 C   0  0  0  0  0  0  0  0  0  0  0  0
   10.3091    1.7883   32.6041 C   0  0  0  0  0  0  0  0  0  0  0  0
   13.2608    4.0423   32.1427 C   0  0  0  0  0  0  0  0  0  0  0  0
   14.2523    2.2160   31.1156 C   0  0  0  0  0  0  0  0  0  0  0  0
   10.0651    0.4208   32.9990 O   0  0  0  0  0  0  0  0  0  0  0  0
   15.0962    2.1057   30.0620 C   0  0  0  0  0  0  0  0  0  0  0  0
   11.9604   -2.5597   33.0358 P   0  0  0  0  0  0  0  0  0  0  0  0
   12.8388   -3.3576   33.4662 O   0  0  0  0  0  0  0  0  0  0  0  0
   10.7606   -3.3362   32.2205 O   0  0  0  0  0  0  0  0  0  0  0  0
   14.1899    3.3829   31.5798 C   0  0  0  0  0  0  0  0  0  0  0  0
    9.3986    2.4729   32.4618 O   0  0  0  0  0  0  0  0  0  0  0  0
   11.1535   -1.8662   34.2407 O   0  0  0  0  0  0  0  0  0  0  0  0
  1  2  2  0
  2  3  1  0
  3  4  2  0
  4  5  1  0
  3  6  1  0
  6  7  1  0
  5  8  1  0
  8  9  2  0
  8 10  1  0
  9 11  1  0
  4 12  1  0
 10 13  1  0
  1 14  1  0
 12 14  2  0
  7 15  1  0
 15 16  1  0
 15 17  2  0
 11 18  2  0
 12 18  1  0
 10 19  2  0
 15 20  1  0
M  END
>  <ID>  (1) 
conformer_0

$$$$
