
     RDKit          3D

 19 19  0  0  0  0  0  0  0  0999 V2000
   13.4653   -2.6345   31.1162 O   0  0  0  0  0  0  0  0  0  0  0  0
   12.6304   -2.7167   32.3579 P   0  0  0  0  0  0  0  0  0  0  0  0
   11.2310   -3.0757   32.0727 O   0  0  0  0  0  0  0  0  0  0  0  0
   12.4564   -1.0676   32.7103 O   0  0  0  0  0  0  0  0  0  0  0  0
   13.2983   -3.3977   33.5152 O   0  0  0  0  0  0  0  0  0  0  0  0
   11.3494   -0.3484   32.3527 C   0  0  0  0  0  0  0  0  0  0  0  0
   11.5809    1.0770   32.3525 C   0  0  0  0  0  0  0  0  0  0  0  0
   10.6592    1.9632   32.5409 C   0  0  0  0  0  0  0  0  0  0  0  0
   10.4136   -4.3278   32.6145 P   0  0  0  0  0  0  0  0  0  0  0  0
   12.9466    1.4118   32.0139 C   0  0  0  0  0  0  0  0  0  0  0  0
    9.6669   -3.8460   33.7882 O   0  0  0  0  0  0  0  0  0  0  0  0
   14.0097    0.5175   31.6719 O   0  0  0  0  0  0  0  0  0  0  0  0
   13.4380    2.7525   31.9415 C   0  0  0  0  0  0  0  0  0  0  0  0
   11.0509    3.3351   32.5214 C   0  0  0  0  0  0  0  0  0  0  0  0
   12.4651    3.7501   32.2342 C   0  0  0  0  0  0  0  0  0  0  0  0
   14.3046    0.4710   30.2842 C   0  0  0  0  0  0  0  0  0  0  0  0
    9.7550   -5.0292   31.6395 O   0  0  0  0  0  0  0  0  0  0  0  0
   15.6222    1.1259   29.9834 C   0  0  0  0  0  0  0  0  0  0  0  0
   11.5275   -5.3395   33.2542 O   0  0  0  0  0  0  0  0  0  0  0  0
  1  2  2  0
  2  3  1  0
  2  4  1  0
  2  5  1  0
  4  6  1  0
  6  7  1  0
  7  8  1  0
  3  9  1  0
  7 10  2  0
  9 11  1  0
 10 12  1  0
 10 13  1  0
  8 14  2  0
 13 15  2  0
 14 15  1  0
 12 16  1  0
  9 17  2  0
 16 18  1  0
  9 19  1  0
M  END
>  <ID>  (1) 
conformer_0

$$$$
