
     RDKit          3D

 16 16  0  0  0  0  0  0  0  0999 V2000
   10.6377   -4.7774   32.2102 O   0  0  0  0  0  0  0  0  0  0  0  0
   11.3124   -3.6819   32.6379 P   0  0  0  0  0  0  0  0  0  0  0  0
   11.9924   -2.7939   31.6262 O   0  0  0  0  0  0  0  0  0  0  0  0
   10.2325   -2.6160   33.3740 O   0  0  0  0  0  0  0  0  0  0  0  0
   12.6561   -1.4959   31.7098 C   0  0  0  0  0  0  0  0  0  0  0  0
   13.8264   -1.3434   31.1144 C   0  0  0  0  0  0  0  0  0  0  0  0
   11.8670   -0.5338   32.3491 C   0  0  0  0  0  0  0  0  0  0  0  0
   12.4073    0.7640   32.3818 C   0  0  0  0  0  0  0  0  0  0  0  0
   13.5945    0.9915   31.6575 C   0  0  0  0  0  0  0  0  0  0  0  0
   12.3724   -3.9295   33.7421 O   0  0  0  0  0  0  0  0  0  0  0  0
   14.2700   -0.0255   30.9413 C   0  0  0  0  0  0  0  0  0  0  0  0
   14.1559    2.3799   31.6365 C   0  0  0  0  0  0  0  0  0  0  0  0
   15.4295    0.2637   30.1444 C   0  0  0  0  0  0  0  0  0  0  0  0
   13.4449    3.4857   32.1065 C   0  0  0  0  0  0  0  0  0  0  0  0
   12.4553    4.0071   31.2323 C   0  0  0  0  0  0  0  0  0  0  0  0
   11.8081    5.1547   31.7933 C   0  0  0  0  0  0  0  0  0  0  0  0
  1  2  1  0
  2  3  1  0
  2  4  1  0
  3  5  1  0
  5  6  1  0
  5  7  2  0
  7  8  1  0
  8  9  2  0
  2 10  2  0
  6 11  2  0
  9 11  1  0
  9 12  1  0
 11 13  1  0
 12 14  1  0
 14 15  1  0
 15 16  1  0
M  END
>  <ID>  (1) 
conformer_0

$$$$
