
     RDKit          3D

 16 17  0  0  0  0  0  0  0  0999 V2000
   13.8909   -0.9600   30.6971 C   0  0  0  0  0  0  0  0  0  0  0  0
   14.3429    0.2114   30.3848 C   0  0  0  0  0  0  0  0  0  0  0  0
   14.0715    1.3167   31.2726 C   0  0  0  0  0  0  0  0  0  0  0  0
   13.2048    1.2034   32.3268 C   0  0  0  0  0  0  0  0  0  0  0  0
   13.0520   -1.2072   31.8136 C   0  0  0  0  0  0  0  0  0  0  0  0
   12.4334   -2.4849   32.1442 C   0  0  0  0  0  0  0  0  0  0  0  0
   12.5311   -3.4079   31.6003 O   0  0  0  0  0  0  0  0  0  0  0  0
   11.3127   -2.3578   33.0082 N   0  0  0  0  0  0  0  0  0  0  0  0
   14.6075    2.7603   30.8290 C   0  0  0  0  0  0  0  0  0  0  0  0
   12.6711   -0.1022   32.6399 C   0  0  0  0  0  0  0  0  0  0  0  0
   10.8600   -1.3501   33.7733 C   0  0  0  0  0  0  0  0  0  0  0  0
   15.2347    0.4228   29.3528 C   0  0  0  0  0  0  0  0  0  0  0  0
   10.5775   -3.7295   33.1194 C   0  0  0  0  0  0  0  0  0  0  0  0
   11.7865   -0.3481   33.7536 C   0  0  0  0  0  0  0  0  0  0  0  0
    9.7991   -3.8684   34.1612 O   0  0  0  0  0  0  0  0  0  0  0  0
   10.5892   -4.4989   32.1039 O   0  0  0  0  0  0  0  0  0  0  0  0
  1  2  2  0
  2  3  1  0
  3  4  2  0
  1  5  1  0
  5  6  1  0
  6  7  2  0
  6  8  1  0
  3  9  1  0
  4 10  1  0
  5 10  2  0
  8 11  1  0
  2 12  1  0
  8 13  1  0
 10 14  1  0
 11 14  1  0
 13 15  1  0
 13 16  2  0
M  END
>  <ID>  (1) 
conformer_0

$$$$
