
     RDKit          3D

 15 15  0  0  0  0  0  0  0  0999 V2000
   14.0264   -0.3403   30.7143 C   0  0  0  0  0  0  0  0  0  0  0  0
   14.5276    0.6348   30.2533 C   0  0  0  0  0  0  0  0  0  0  0  0
   13.2156   -0.2036   31.7852 C   0  0  0  0  0  0  0  0  0  0  0  0
   12.4662   -1.3060   32.4572 N   0  0  0  0  0  0  0  0  0  0  0  0
   14.4968    1.8955   30.6805 C   0  0  0  0  0  0  0  0  0  0  0  0
   13.6663    2.1176   31.7257 C   0  0  0  0  0  0  0  0  0  0  0  0
   11.2802   -1.3042   32.6685 C   0  0  0  0  0  0  0  0  0  0  0  0
   13.4879    3.3963   32.3444 C   0  0  0  0  0  0  0  0  0  0  0  0
   12.9760    1.0617   32.3462 C   0  0  0  0  0  0  0  0  0  0  0  0
   12.5267    3.5627   33.1372 O   0  0  0  0  0  0  0  0  0  0  0  0
   10.4444   -0.4277   32.5683 O   0  0  0  0  0  0  0  0  0  0  0  0
   10.9109   -2.6090   33.4566 C   0  0  0  0  0  0  0  0  0  0  0  0
    9.9758   -2.5567   34.3898 O   0  0  0  0  0  0  0  0  0  0  0  0
   11.2640   -3.8346   32.9603 O   0  0  0  0  0  0  0  0  0  0  0  0
   15.5040    0.4797   29.1115 C   0  0  0  0  0  0  0  0  0  0  0  0
  1  2  1  0
  1  3  2  0
  3  4  1  0
  2  5  2  0
  5  6  1  0
  4  7  1  0
  6  8  1  0
  3  9  1  0
  6  9  2  0
  8 10  1  0
  7 11  2  0
  7 12  1  0
 12 13  2  0
 12 14  1  0
  2 15  1  0
M  END
>  <ID>  (1) 
conformer_0

$$$$
