
     RDKit          3D

 16 17  0  0  0  0  0  0  0  0999 V2000
   13.8909   -0.9600   30.6971 C   0  0  0  0  0  0  0  0  0  0  0  0
   13.2075   -0.9866   31.6611 N   0  0  0  0  0  0  0  0  0  0  0  0
   14.3740    0.4109   30.3354 C   0  0  0  0  0  0  0  0  0  0  0  0
   14.6035   -2.0096   30.5475 O   0  0  0  0  0  0  0  0  0  0  0  0
   12.7720   -2.3015   32.2732 C   0  0  0  0  0  0  0  0  0  0  0  0
   12.7529   -2.3114   33.6309 C   0  0  0  0  0  0  0  0  0  0  0  0
   11.3537   -2.6522   31.7603 O   0  0  0  0  0  0  0  0  0  0  0  0
   12.5883    0.2260   32.0319 C   0  0  0  0  0  0  0  0  0  0  0  0
   13.7998    1.5005   30.7349 C   0  0  0  0  0  0  0  0  0  0  0  0
   12.8074    1.3392   31.6585 C   0  0  0  0  0  0  0  0  0  0  0  0
   10.8238   -3.6227   32.6026 C   0  0  0  0  0  0  0  0  0  0  0  0
   11.6088   -3.2634   33.9489 C   0  0  0  0  0  0  0  0  0  0  0  0
   15.4794    0.4492   29.2445 C   0  0  0  0  0  0  0  0  0  0  0  0
   11.0713   -4.8650   32.0796 O   0  0  0  0  0  0  0  0  0  0  0  0
   10.6427   -2.6001   34.8968 O   0  0  0  0  0  0  0  0  0  0  0  0
   14.1535    2.7929   30.3440 O   0  0  0  0  0  0  0  0  0  0  0  0
  1  2  1  0
  1  3  1  0
  1  4  2  0
  2  5  1  0
  5  6  1  0
  5  7  1  0
  2  8  1  0
  3  9  2  0
  8 10  2  0
  9 10  1  0
  7 11  1  0
  6 12  1  0
 11 12  1  0
  3 13  1  0
 11 14  1  0
 12 15  1  0
  9 16  1  0
M  END
>  <ID>  (1) 
conformer_0

$$$$
