
     RDKit          3D

 20 23  0  0  0  0  0  0  0  0999 V2000
   27.9928   27.9095   33.1826 C   0  0  0  0  0  0  0  0  0  0  0  0
   28.0928   27.4095   31.9826 N   0  0  0  0  0  0  0  0  0  0  0  0
   28.8928   27.6095   34.1826 C   0  0  0  0  0  0  0  0  0  0  0  0
   30.1928   27.6095   33.5826 C   0  0  0  0  0  0  0  0  0  0  0  0
   30.2928   27.7095   32.2826 N   0  0  0  0  0  0  0  0  0  0  0  0
   29.2928   27.0095   31.5826 C   0  0  0  0  0  0  0  0  0  0  0  0
   28.6928   27.7095   35.5826 C   0  0  0  0  0  0  0  0  0  0  0  0
   31.5928   27.7095   31.5826 C   0  0  0  0  0  3  0  0  0  0  0  0
   31.5928   26.9095   30.3826 C   0  0  0  0  0  0  0  0  0  0  0  0
   32.5928   27.5095   32.5826 C   0  0  0  0  0  0  0  0  0  0  0  0
   32.0928   27.0095   29.0826 C   0  0  0  0  0  0  0  0  0  0  0  0
   31.4928   26.5095   27.9826 C   0  0  0  0  0  0  0  0  0  0  0  0
   29.5928   28.2095   36.2826 O   0  0  0  0  0  0  0  0  0  0  0  0
   33.8928   27.3095   32.1826 C   0  0  0  0  0  0  0  0  0  0  0  0
   34.8928   27.5095   32.9826 O   0  0  0  0  0  0  0  0  0  0  0  0
   34.9928   28.1095   34.2826 C   0  0  0  0  0  0  0  0  0  0  0  0
   33.8928   27.3095   30.7826 C   0  0  0  0  0  0  0  0  0  0  0  0
   27.8928   26.7095   36.1826 N   0  0  0  0  0  0  0  0  0  0  0  0
   32.7928   26.5095   30.1826 C   0  0  0  0  0  0  0  0  0  0  0  0
   29.9928   26.6095   30.3826 N   0  0  0  0  0  0  0  0  0  0  0  0
  2  1  1  0
  3  1  1  0
  4  3  2  0
  5  4  1  0
  6  2  2  0
  6  5  1  0
  7  3  1  0
  8  5  1  0
  9  8  1  0
 10  8  1  0
 11  9  1  0
 12 11  2  0
 13  7  2  0
 14 10  2  0
 15 14  1  0
 16 15  1  0
 17 14  1  0
 18  7  1  0
 19  9  1  0
 19 11  1  0
 19 17  2  0
 20  6  1  0
 20  9  1  0
M  END
>  <ID>  (1) 
conformer_0

$$$$
