
     RDKit          3D

 19 21  0  0  0  0  0  0  0  0999 V2000
   27.7821   27.9096   33.4258 C   0  0  0  0  0  0  0  0  0  0  0  0
   28.2821   27.5096   32.2258 N   0  0  0  0  0  0  0  0  0  0  0  0
   28.7821   27.7096   34.4258 C   0  0  0  0  0  0  0  0  0  0  0  0
   30.0821   27.5096   33.8258 C   0  0  0  0  0  0  0  0  0  0  0  0
   31.1821   27.5096   34.5258 N   0  0  0  0  0  0  0  0  0  0  0  0
   29.0821   28.3096   35.7258 C   0  0  0  0  0  0  0  0  0  0  0  0
   32.4821   27.5096   33.8258 C   0  0  0  0  0  0  0  0  0  0  0  0
   33.6821   27.6096   34.6258 C   0  0  0  0  0  0  0  0  0  0  0  0
   33.7821   26.9096   35.9258 C   0  0  0  0  0  0  0  0  0  0  0  0
   32.5821   26.2096   33.3258 O   0  0  0  0  0  0  0  0  0  0  0  0
   34.8821   27.5096   33.9258 C   0  0  0  0  0  0  0  0  0  0  0  0
   35.0821   27.0096   36.4258 C   0  0  0  0  0  0  0  0  0  0  0  0
   36.1821   27.6096   34.5258 C   0  0  0  0  0  0  0  0  0  0  0  0
   36.0821   27.9096   35.9258 C   0  0  0  0  0  0  0  0  0  0  0  0
   29.2821   26.7096   31.9258 C   0  0  0  0  0  0  0  0  0  0  0  0
   29.2821   27.6096   36.7258 O   0  0  0  0  0  0  0  0  0  0  0  0
   30.3821   26.9096   31.0258 C   0  0  0  0  0  0  0  0  0  0  0  0
   30.3821   27.4096   32.4258 N   0  0  0  0  0  0  0  0  0  0  0  0
   27.8821   29.1096   36.1258 N   0  0  0  0  0  0  0  0  0  0  0  0
  2  1  1  0
  3  1  2  0
  4  3  1  0
  5  4  2  3
  6  3  1  0
  7  5  1  0
  8  7  1  0
  9  8  2  0
 10  7  1  0
 11  8  1  0
 12  9  1  0
 13 11  2  0
 14 12  2  0
 14 13  1  0
 15  2  2  0
 16  6  1  0
 17 15  1  0
 18  4  1  0
 18 15  1  0
 18 17  1  0
 19  6  1  0
M  END
>  <ID>  (1) 
conformer_0

$$$$
