
     RDKit          3D

 14 15  0  0  0  0  0  0  0  0999 V2000
   27.9928   27.9095   33.1826 C   0  0  0  0  0  0  0  0  0  0  0  0
   28.0928   27.4095   31.9826 N   0  0  0  0  0  0  0  0  0  0  0  0
   28.8928   27.6095   34.1826 C   0  0  0  0  0  0  0  0  0  0  0  0
   30.1928   27.6095   33.5826 C   0  0  0  0  0  0  0  0  0  0  0  0
   30.2928   27.7095   32.2826 N   0  0  0  0  0  0  0  0  0  0  0  0
   29.2928   27.0095   31.5826 C   0  0  0  0  0  0  0  0  0  0  0  0
   28.6928   27.7095   35.5826 C   0  0  0  0  0  0  0  0  0  0  0  0
   31.5928   27.7095   31.5826 C   0  0  0  0  0  0  0  0  0  0  0  0
   31.5928   26.9095   30.3826 C   0  0  0  0  0  0  0  0  0  0  0  0
   32.0928   27.6095   29.1826 C   0  0  0  0  0  0  0  0  0  0  0  0
   32.0928   29.0095   31.1826 C   0  0  0  0  0  0  0  0  0  0  0  0
   32.7928   28.8095   29.8826 C   0  0  0  0  0  0  0  0  0  0  0  0
   29.5928   27.7095   36.4826 O   0  0  0  0  0  0  0  0  0  0  0  0
   27.5928   27.0095   35.9826 N   0  0  0  0  0  0  0  0  0  0  0  0
  2  1  1  0
  3  1  2  0
  4  3  1  0
  5  4  1  0
  6  2  2  0
  6  5  1  0
  7  3  1  0
  8  5  1  0
  9  8  2  0
 10  9  1  0
 11  8  1  0
 12 10  2  0
 12 11  1  0
 13  7  2  0
 14  7  1  0
M  END
>  <ID>  (1) 
conformer_0

$$$$
