
     RDKit          3D

 26 31  0  0  0  0  0  0  0  0999 V2000
   27.9928   27.9095   33.1826 C   0  0  0  0  0  0  0  0  0  0  0  0
   28.0928   27.4095   31.9826 N   0  0  0  0  0  0  0  0  0  0  0  0
   28.8928   27.6095   34.1826 C   0  0  0  0  0  3  0  0  0  0  0  0
   30.1928   27.6095   33.5826 C   0  0  0  0  0  0  0  0  0  0  0  0
   30.1928   27.9095   32.2826 N   0  0  0  0  0  4  0  0  0  0  0  0
   29.2928   27.0095   31.5826 C   0  0  0  0  0  0  0  0  0  0  0  0
   28.6928   28.2095   35.4826 C   0  0  0  0  0  0  0  0  0  0  0  0
   31.3928   28.1095   31.4826 C   0  0  0  0  0  0  0  0  0  0  0  0
   31.3928   27.3095   30.2826 C   0  0  0  0  0  0  0  0  0  0  0  0
   32.4928   28.6095   32.0826 C   0  0  0  0  0  0  0  0  0  0  0  0
   32.6928   26.7095   29.9826 C   0  0  0  0  0  0  0  0  0  0  0  0
   33.7928   28.0095   31.6826 C   0  0  0  0  0  0  0  0  0  0  0  0
   33.6928   26.8095   30.8826 C   0  0  0  0  0  0  0  0  0  0  0  0
   29.5928   27.7095   36.3826 O   0  0  0  0  0  0  0  0  0  0  0  0
   30.9928   27.7095   35.9826 C   0  0  0  0  0  0  0  0  0  0  0  0
   31.2928   27.6095   34.5826 C   0  0  0  0  0  0  0  0  0  0  0  0
   27.2928   28.4095   35.9826 C   0  0  0  0  0  0  0  0  0  0  0  0
   26.7928   28.4095   33.6826 N   0  0  0  0  0  0  0  0  0  0  0  0
   32.0928   28.1095   36.8826 C   0  0  0  0  0  0  0  0  0  0  0  0
   33.0928   29.1095   36.3826 C   0  0  0  0  0  0  0  0  0  0  0  0
   34.2928   28.3095   36.0826 C   0  0  0  0  0  0  0  0  0  0  0  0
   33.9928   27.0095   35.4826 C   0  0  0  0  0  0  0  0  0  0  0  0
   34.3928   27.0095   36.8826 C   0  0  0  0  0  0  0  0  0  0  0  0
   35.4928   28.9095   35.9826 O   0  0  0  0  0  0  0  0  0  0  0  0
   30.0928   26.6095   32.5826 N   0  0  0  0  0  0  0  0  0  0  0  0
   26.2928   28.4095   34.9826 C   0  0  0  0  0  0  0  0  0  0  0  0
  2  1  2  0
  3  1  1  0
  4  3  1  0
  5  4  1  0
  6  2  1  0
  6  5  1  0
  7  3  1  0
  8  5  1  0
  9  8  2  0
 10  8  1  0
 11  9  1  0
 12 10  2  0
 13 11  2  0
 13 12  1  0
 14  7  1  0
 15 14  1  0
 16  4  1  0
 16 15  2  0
 17  7  1  0
 18  1  1  0
 19 15  1  0
 20 19  1  0
 21 20  1  0
 22 21  1  0
 23 21  1  0
 23 22  1  0
 24 21  1  0
 25  4  1  0
 25  6  1  0
 26 17  1  0
 26 18  1  0
M  END
>  <ID>  (1) 
conformer_0

$$$$
