
     RDKit          3D

 16 18  0  0  0  0  0  0  0  0999 V2000
   27.9928   27.9095   33.1826 C   0  0  0  0  0  0  0  0  0  0  0  0
   28.0928   27.4095   31.9826 N   0  0  0  0  0  0  0  0  0  0  0  0
   28.8928   27.6095   34.1826 C   0  0  0  0  0  0  0  0  0  0  0  0
   30.1928   27.6095   33.5826 C   0  0  0  0  0  0  0  0  0  0  0  0
   30.2928   27.8095   32.2826 N   0  0  0  0  0  4  0  0  0  0  0  0
   29.2928   27.1095   31.6826 C   0  0  0  0  0  3  0  0  0  0  0  0
   31.5928   27.6095   31.6826 C   0  0  0  0  0  0  0  0  0  0  0  0
   31.4928   27.3095   30.2826 C   0  0  0  0  0  0  0  0  0  0  0  0
   28.5928   27.8095   35.5826 C   0  0  0  0  0  0  0  0  0  0  0  0
   32.4928   26.9095   32.4826 C   0  0  0  0  0  0  0  0  0  0  0  0
   32.4928   26.6095   29.6826 C   0  0  0  0  0  0  0  0  0  0  0  0
   29.5928   28.1095   36.3826 O   0  0  0  0  0  0  0  0  0  0  0  0
   33.7928   27.1095   31.7826 C   0  0  0  0  0  0  0  0  0  0  0  0
   33.6928   27.0095   30.4826 C   0  0  0  0  0  0  0  0  0  0  0  0
   27.7928   26.7095   36.1826 N   0  0  0  0  0  0  0  0  0  0  0  0
   29.9928   26.6095   32.5826 N   0  0  0  0  0  0  0  0  0  0  0  0
  2  1  2  0
  3  1  1  0
  4  3  2  0
  5  4  1  0
  6  2  1  0
  6  5  1  0
  7  5  1  0
  8  7  2  0
  9  3  1  0
 10  7  1  0
 11  8  1  0
 12  9  1  0
 13 10  2  0
 14 11  2  0
 14 13  1  0
 15  9  1  0
 16  4  1  0
 16  6  1  0
M  END
>  <ID>  (1) 
conformer_0

$$$$
