
     RDKit          3D

 10 11  0  0  0  0  0  0  0  0999 V2000
   28.1446   27.8271   33.2450 C   0  0  0  0  0  0  0  0  0  0  0  0
   28.2446   27.4271   32.0450 N   0  0  0  0  0  0  0  0  0  0  0  0
   28.9446   27.6271   34.3450 C   0  0  0  0  0  0  0  0  0  0  0  0
   30.2446   27.4271   33.6450 C   0  0  0  0  0  0  0  0  0  0  0  0
   30.4446   28.0271   32.4450 C   0  0  0  0  0  0  0  0  0  0  0  0
   30.2446   26.7271   32.4450 N   0  0  0  0  0  0  0  0  0  0  0  0
   28.6446   27.7271   35.6450 C   0  0  0  0  0  0  0  0  0  0  0  0
   29.1446   26.5271   31.6450 C   0  0  0  0  0  0  0  0  0  0  0  0
   29.3446   27.6271   36.5450 O   0  0  0  0  0  0  0  0  0  0  0  0
   27.3446   27.1271   35.9450 N   0  0  0  0  0  0  0  0  0  0  0  0
  2  1  1  0
  3  1  2  0
  4  3  1  0
  5  4  1  0
  6  4  1  0
  6  5  1  0
  7  3  1  0
  8  2  2  0
  8  6  1  0
  9  7  2  0
 10  7  1  0
M  END
>  <ID>  (1) 
conformer_0

$$$$
