
     RDKit          3D

 24 27  0  0  0  0  0  0  0  0999 V2000
   27.7821   27.9096   33.4258 C   0  0  0  0  0  0  0  0  0  0  0  0
   28.2821   27.5096   32.2258 N   0  0  0  0  0  0  0  0  0  0  0  0
   28.6821   27.7096   34.5258 C   0  0  0  0  0  0  0  0  0  0  0  0
   29.9821   27.6096   34.0258 C   0  0  0  0  0  0  0  0  0  0  0  0
   31.0821   27.8096   34.7258 N   0  0  0  0  0  0  0  0  0  0  0  0
   32.2821   28.0096   35.1258 C   0  0  0  0  0  0  0  0  0  0  0  0
   33.5821   27.4096   34.7258 C   0  0  0  0  0  3  0  0  0  0  0  0
   34.2821   26.9096   35.9258 C   0  0  0  0  0  0  0  0  0  0  0  0
   32.3821   28.5096   36.5258 C   0  0  0  0  0  0  0  0  0  0  0  0
   33.5821   29.0096   37.0258 C   0  0  0  0  0  0  0  0  0  0  0  0
   31.1821   28.6096   37.1258 C   0  0  0  0  0  0  0  0  0  0  0  0
   29.8821   28.8096   36.4258 C   0  0  0  0  0  0  0  0  0  0  0  0
   31.3821   29.3096   38.4258 C   0  0  0  0  0  0  0  0  0  0  0  0
   29.2821   26.7096   32.0258 C   0  0  0  0  0  0  0  0  0  0  0  0
   29.9821   26.8096   30.7258 N   0  0  0  0  0  0  0  0  0  0  0  0
   34.6821   27.9096   36.8258 C   0  0  0  0  0  0  0  0  0  0  0  0
   28.8821   28.4096   35.8258 C   0  0  0  0  0  0  0  0  0  0  0  0
   30.0821   26.5096   33.0258 N   0  0  0  0  0  2  0  0  0  0  0  0
   31.1821   27.3096   30.4258 C   0  0  0  0  0  0  0  0  0  0  0  0
   32.1821   26.4096   29.8258 C   0  0  0  0  0  0  0  0  0  0  0  0
   31.6821   28.7096   39.4258 O   0  0  0  0  0  0  0  0  0  0  0  0
   31.6821   28.6096   30.7258 C   0  0  0  0  0  0  0  0  0  0  0  0
   32.3821   29.5096   39.0258 N   0  0  0  0  0  0  0  0  0  0  0  0
   31.6821   29.1096   34.6258 C   0  0  0  0  0  0  0  0  0  0  0  0
  2  1  1  0
  3  1  1  0
  4  3  1  0
  5  4  1  0
  6  5  1  0
  7  6  1  0
  8  7  1  0
  9  6  1  0
 10  9  2  0
 11  9  1  0
 12 11  1  0
 13 11  1  0
 14  2  2  0
 15 14  1  0
 16  8  2  0
 16 10  1  0
 17  3  1  0
 17 12  1  0
 18  4  1  0
 18 14  1  0
 19 15  1  0
 20 19  1  0
 21 13  1  0
 22 19  1  0
 23 13  1  0
 24  5  1  0
 24  6  1  0
M  END
>  <ID>  (1) 
conformer_0

$$$$
