
     RDKit          3D

 17 18  0  0  0  0  0  0  0  0999 V2000
   27.9928   27.9095   33.1826 C   0  0  0  0  0  0  0  0  0  0  0  0
   28.0928   27.4095   31.9826 N   0  0  0  0  0  0  0  0  0  0  0  0
   28.8928   27.6095   34.1826 C   0  0  0  0  0  0  0  0  0  0  0  0
   30.1928   27.6095   33.5826 C   0  0  0  0  0  0  0  0  0  0  0  0
   30.2928   28.0095   32.2826 N   0  0  0  0  0  0  0  0  0  0  0  0
   29.3928   27.1095   31.5826 C   0  0  0  0  0  0  0  0  0  0  0  0
   31.5928   28.3095   31.8826 C   0  0  0  0  0  0  0  0  0  0  0  0
   32.4928   28.5095   32.9826 C   0  0  0  0  0  0  0  0  0  0  0  0
   28.5928   27.8095   35.5826 C   0  0  0  0  0  0  0  0  0  0  0  0
   32.0928   27.7095   30.6826 C   0  0  0  0  0  0  0  0  0  0  0  0
   29.4928   28.2095   36.3826 O   0  0  0  0  0  0  0  0  0  0  0  0
   33.8928   28.2095   32.8826 C   0  0  0  0  0  0  0  0  0  0  0  0
   34.1928   27.3095   31.8826 C   0  0  0  0  0  0  0  0  0  0  0  0
   33.3928   27.1095   30.6826 C   0  0  0  0  0  0  0  0  0  0  0  0
   27.6928   26.8095   36.0826 N   0  0  0  0  0  0  0  0  0  0  0  0
   32.1928   29.4095   33.9826 F   0  0  0  0  0  0  0  0  0  0  0  0
   29.5928   26.6095   30.3826 N   0  0  0  0  0  0  0  0  0  0  0  0
  2  1  1  0
  3  1  2  0
  4  3  1  0
  5  4  1  0
  6  2  2  0
  6  5  1  0
  7  5  1  0
  8  7  2  0
  9  3  1  0
 10  7  1  0
 11  9  2  0
 12  8  1  0
 13 12  2  0
 14 10  2  0
 14 13  1  0
 15  9  1  0
 16  8  1  0
 17  6  1  0
M  END
>  <ID>  (1) 
conformer_0

$$$$
