
     RDKit          3D

 25 31  0  0  0  0  0  0  0  0999 V2000
   27.9928   27.9095   33.1826 C   0  0  0  0  0  0  0  0  0  0  0  0
   28.0928   27.4095   31.9826 N   0  0  0  0  0  0  0  0  0  0  0  0
   28.8928   27.6095   34.1826 C   0  0  0  0  0  0  0  0  0  0  0  0
   30.1928   27.6095   33.5826 C   0  0  0  0  0  0  0  0  0  0  0  0
   30.2928   27.8095   32.2826 N   0  0  0  0  0  4  0  0  0  0  0  0
   29.2928   27.0095   31.6826 C   0  0  0  0  0  0  0  0  0  0  0  0
   31.4928   27.8095   31.4826 C   0  0  0  0  0  3  0  0  0  0  0  0
   31.3928   27.3095   30.1826 C   0  0  0  0  0  0  0  0  0  0  0  0
   28.7928   28.3095   35.4826 C   0  0  0  0  0  0  0  0  0  0  0  0
   32.2928   26.6095   29.4826 C   0  0  0  0  0  0  0  0  0  0  0  0
   32.5928   27.2095   32.1826 C   0  0  0  0  0  0  0  0  0  0  0  0
   31.7928   26.0095   28.2826 O   0  0  0  0  0  0  0  0  0  0  0  0
   30.3928   26.1095   28.3826 C   0  0  0  0  0  0  0  0  0  0  0  0
   33.6928   27.0095   31.3826 C   0  0  0  0  0  0  0  0  0  0  0  0
   33.5928   26.5095   30.0826 C   0  0  0  0  0  0  0  0  0  0  0  0
   29.0928   27.8095   36.4826 O   0  0  0  0  0  0  0  0  0  0  0  0
   31.3928   27.7095   34.3826 C   0  0  0  0  0  3  0  0  0  0  0  0
   32.5928   27.3095   33.5826 N   0  0  0  0  0  0  0  0  0  0  0  0
   33.8928   27.3095   34.2826 C   0  0  0  0  0  0  0  0  0  0  0  0
   33.8928   26.9095   35.6826 C   0  0  0  0  0  0  0  0  0  0  0  0
   33.7928   28.3095   35.5826 C   0  0  0  0  0  0  0  0  0  0  0  0
   30.0928   28.7095   35.9826 C   0  0  0  0  0  0  0  0  0  0  0  0
   31.3928   28.0095   35.7826 C   0  0  0  0  0  0  0  0  0  0  0  0
   26.8928   28.6095   33.5826 N   0  0  0  0  0  0  0  0  0  0  0  0
   30.0928   26.5095   32.5826 N   0  0  0  0  0  0  0  0  0  0  0  0
  2  1  1  0
  3  1  2  0
  4  3  1  0
  5  4  1  0
  6  2  2  0
  6  5  1  0
  7  5  1  0
  8  7  1  0
  9  3  1  0
 10  8  1  0
 11  7  1  0
 12 10  1  0
 13 12  1  0
 14 11  2  0
 15 10  2  0
 15 14  1  0
 16  9  1  0
 17  4  1  0
 18 11  1  0
 18 17  1  0
 19 18  1  0
 20 19  1  0
 21 19  1  0
 21 20  1  0
 22  9  1  0
 22 16  1  0
 23 17  1  0
 23 22  1  0
 24  1  1  0
 25  4  1  0
 25  6  1  0
M  END
>  <ID>  (1) 
conformer_0

$$$$
