
     RDKit          3D

 16 18  0  0  0  0  0  0  0  0999 V2000
   27.9928   27.9095   33.1826 C   0  0  0  0  0  0  0  0  0  0  0  0
   28.0928   27.4095   31.9826 N   0  0  0  0  0  0  0  0  0  0  0  0
   28.8928   27.6095   34.1826 C   0  0  0  0  0  0  0  0  0  0  0  0
   30.1928   27.6095   33.4826 C   0  0  0  0  0  0  0  0  0  0  0  0
   30.2928   27.7095   32.1826 N   0  0  0  0  0  0  0  0  0  0  0  0
   29.1928   26.9095   31.5826 C   0  0  0  0  0  0  0  0  0  0  0  0
   28.8928   27.9095   35.5826 C   0  0  0  0  0  0  0  0  0  0  0  0
   31.4928   28.1095   31.5826 C   0  0  0  0  0  0  0  0  0  0  0  0
   32.2928   28.7095   32.6826 C   0  0  0  0  0  0  0  0  0  0  0  0
   32.1928   27.3095   30.6826 C   0  0  0  0  0  0  0  0  0  0  0  0
   33.5928   27.4095   30.8826 C   0  0  0  0  0  0  0  0  0  0  0  0
   34.2928   27.5095   32.0826 C   0  0  0  0  0  0  0  0  0  0  0  0
   33.6928   28.3095   32.9826 C   0  0  0  0  0  0  0  0  0  0  0  0
   29.6928   27.7095   36.3826 O   0  0  0  0  0  0  0  0  0  0  0  0
   27.4928   28.0095   35.9826 O   0  0  0  0  0  0  0  0  0  0  0  0
   31.2928   28.5095   33.8826 N   0  0  0  0  0  0  0  0  0  0  0  0
  2  1  1  0
  3  1  2  0
  4  3  1  0
  5  4  1  0
  6  2  2  0
  6  5  1  0
  7  3  1  0
  8  5  1  0
  9  8  2  0
 10  8  1  0
 11 10  2  0
 12 11  1  0
 13  9  1  0
 13 12  2  0
 14  7  2  0
 15  7  1  0
 16  4  1  0
 16  9  1  0
M  END
>  <ID>  (1) 
conformer_0

$$$$
