
     RDKit          3D

 27 32  0  0  0  0  0  0  0  0999 V2000
   27.9928   27.9095   33.1826 C   0  0  0  0  0  0  0  0  0  0  0  0
   28.0928   27.4095   31.9826 N   0  0  0  0  0  0  0  0  0  0  0  0
   28.8928   27.6095   34.1826 C   0  0  0  0  0  3  0  0  0  0  0  0
   30.1928   27.6095   33.5826 C   0  0  0  0  0  0  0  0  0  0  0  0
   30.2928   27.8095   32.2826 N   0  0  0  0  0  4  0  0  0  0  0  0
   29.2928   27.0095   31.6826 C   0  0  0  0  0  3  0  0  0  0  0  0
   31.4928   27.7095   31.4826 C   0  0  0  0  0  0  0  0  0  0  0  0
   31.1928   27.2095   30.1826 C   0  0  0  0  0  0  0  0  0  0  0  0
   28.7928   28.3095   35.4826 C   0  0  0  0  0  0  0  0  0  0  0  0
   32.3928   26.9095   29.3826 C   0  0  0  0  0  0  0  0  0  0  0  0
   32.6928   28.4095   31.4826 C   0  0  0  0  0  0  0  0  0  0  0  0
   33.7928   27.5095   31.1826 C   0  0  0  0  0  0  0  0  0  0  0  0
   29.3928   27.7095   36.3826 O   0  0  0  0  0  0  0  0  0  0  0  0
   31.9928   25.8095   28.4826 O   0  0  0  0  0  0  0  0  0  0  0  0
   30.8928   26.1095   27.6826 C   0  0  0  0  0  0  0  0  0  0  0  0
   33.3928   26.5095   30.3826 C   0  0  0  0  0  0  0  0  0  0  0  0
   31.4928   27.4095   34.2826 C   0  0  0  0  0  0  0  0  0  0  0  0
   30.0928   28.8095   35.8826 C   0  0  0  0  0  0  0  0  0  0  0  0
   26.8928   28.5095   33.6826 N   0  0  0  0  0  0  0  0  0  0  0  0
   30.2928   29.9095   36.7826 C   0  0  0  0  0  0  0  0  0  0  0  0
   30.5928   29.7095   38.1826 C   0  0  0  0  0  0  0  0  0  0  0  0
   31.5928   30.5095   38.8826 C   0  0  0  0  0  0  0  0  0  0  0  0
   32.2928   29.8095   39.8826 C   0  0  0  0  0  0  0  0  0  0  0  0
   32.3928   28.4095   39.3826 C   0  0  0  0  0  0  0  0  0  0  0  0
   31.4928   28.4095   38.1826 N   0  0  0  0  0  0  0  0  0  0  0  0
   32.8928   28.7095   37.7826 C   0  0  0  0  0  0  0  0  0  0  0  0
   29.8928   26.5095   32.5826 N   0  0  0  0  0  0  0  0  0  0  0  0
  2  1  2  0
  3  1  1  0
  4  3  1  0
  5  4  1  0
  6  2  1  0
  6  5  1  0
  7  5  1  0
  8  7  2  0
  9  3  1  0
 10  8  1  0
 11  7  1  0
 12 11  2  0
 13  9  1  0
 14 10  1  0
 15 14  1  0
 16 10  2  0
 16 12  1  0
 17  4  1  0
 18  9  1  0
 18 13  1  0
 19  1  1  0
 20 18  1  0
 21 20  1  0
 22 21  1  0
 23 22  1  0
 24 23  1  0
 25 21  1  0
 25 24  1  0
 26 24  1  0
 26 25  1  0
 27  4  1  0
 27  6  1  0
M  END
>  <ID>  (1) 
conformer_0

$$$$
