
     RDKit          3D

 21 23  0  0  0  0  0  0  0  0999 V2000
   27.9928   27.9095   33.1826 C   0  0  0  0  0  0  0  0  0  0  0  0
   28.0928   27.4095   31.9826 N   0  0  0  0  0  0  0  0  0  0  0  0
   28.8928   27.6095   34.1826 C   0  0  0  0  0  0  0  0  0  0  0  0
   30.1928   27.6095   33.5826 C   0  0  0  0  0  0  0  0  0  0  0  0
   30.2928   27.8095   32.2826 N   0  0  0  0  0  0  0  0  0  0  0  0
   29.2928   27.0095   31.6826 C   0  0  0  0  0  0  0  0  0  0  0  0
   31.4928   27.8095   31.4826 C   0  0  0  0  0  0  0  0  0  0  0  0
   31.3928   27.3095   30.1826 C   0  0  0  0  0  0  0  0  0  0  0  0
   28.7928   28.3095   35.4826 C   0  0  0  0  0  0  0  0  0  0  0  0
   32.2928   26.6095   29.4826 C   0  0  0  0  0  0  0  0  0  0  0  0
   32.5928   27.3095   32.1826 C   0  0  0  0  0  0  0  0  0  0  0  0
   33.7928   27.2095   31.4826 C   0  0  0  0  0  0  0  0  0  0  0  0
   29.6928   28.0095   36.2826 O   0  0  0  0  0  0  0  0  0  0  0  0
   34.9928   27.2095   32.0826 O   0  0  0  0  0  0  0  0  0  0  0  0
   31.9928   25.9095   28.3826 O   0  0  0  0  0  0  0  0  0  0  0  0
   30.7928   26.1095   27.8826 C   0  0  0  0  0  0  0  0  0  0  0  0
   33.5928   26.6095   30.1826 C   0  0  0  0  0  0  0  0  0  0  0  0
   27.3928   28.5095   35.9826 C   0  0  0  0  0  0  0  0  0  0  0  0
   31.3928   27.4095   34.2826 C   0  0  0  0  0  0  0  0  0  0  0  0
   26.7928   28.4095   33.6826 N   0  0  0  0  0  0  0  0  0  0  0  0
   26.3928   28.1095   34.9826 C   0  0  0  0  0  0  0  0  0  0  0  0
  2  1  2  0
  3  1  1  0
  4  3  1  0
  5  4  1  0
  6  2  1  0
  6  5  1  0
  7  5  1  0
  8  7  2  0
  9  3  1  0
 10  8  1  0
 11  7  1  0
 12 11  2  0
 13  9  2  0
 14 12  1  0
 15 10  1  0
 16 15  1  0
 17 10  2  0
 17 12  1  0
 18  9  1  0
 19  4  1  0
 20  1  1  0
 21 18  1  0
 21 20  1  0
M  END
>  <ID>  (1) 
conformer_0

$$$$
