
     RDKit          3D

 19 21  0  0  0  0  0  0  0  0999 V2000
   27.9928   27.9095   33.1826 C   0  0  0  0  0  0  0  0  0  0  0  0
   28.0928   27.4095   31.9826 N   0  0  0  0  0  0  0  0  0  0  0  0
   28.8928   27.6095   34.1826 C   0  0  0  0  0  3  0  0  0  0  0  0
   30.1928   27.6095   33.5826 C   0  0  0  0  0  0  0  0  0  0  0  0
   30.2928   27.8095   32.2826 N   0  0  0  0  0  4  0  0  0  0  0  0
   29.2928   27.0095   31.6826 C   0  0  0  0  0  3  0  0  0  0  0  0
   31.4928   27.7095   31.4826 C   0  0  0  0  0  0  0  0  0  0  0  0
   31.2928   27.3095   30.1826 C   0  0  0  0  0  0  0  0  0  0  0  0
   28.5928   27.9095   35.5826 C   0  0  0  0  0  0  0  0  0  0  0  0
   32.2928   27.0095   29.2826 C   0  0  0  0  0  0  0  0  0  0  0  0
   32.6928   28.4095   31.6826 C   0  0  0  0  0  0  0  0  0  0  0  0
   31.7928   26.3095   28.1826 O   0  0  0  0  0  0  0  0  0  0  0  0
   30.3928   26.2095   28.2826 C   0  0  0  0  0  0  0  0  0  0  0  0
   33.7928   27.7095   31.1826 C   0  0  0  0  0  0  0  0  0  0  0  0
   33.4928   26.8095   30.0826 C   0  0  0  0  0  0  0  0  0  0  0  0
   31.3928   27.3095   34.3826 C   0  0  0  0  0  0  0  0  0  0  0  0
   26.7928   28.4095   33.6826 N   0  0  0  0  0  0  0  0  0  0  0  0
   28.6928   27.4095   36.6826 N   0  0  0  0  0  0  0  0  0  0  0  0
   29.9928   26.5095   32.5826 N   0  0  0  0  0  0  0  0  0  0  0  0
  2  1  2  0
  3  1  1  0
  4  3  1  0
  5  4  1  0
  6  2  1  0
  6  5  1  0
  7  5  1  0
  8  7  2  0
  9  3  1  0
 10  8  1  0
 11  7  1  0
 12 10  1  0
 13 12  1  0
 14 11  2  0
 15 10  2  0
 15 14  1  0
 16  4  1  0
 17  1  1  0
 18  9  2  0
 19  4  1  0
 19  6  1  0
M  END
>  <ID>  (1) 
conformer_0

$$$$
