
     RDKit          3D

 19 22  0  0  0  0  0  0  0  0999 V2000
   27.9928   27.9095   33.1826 C   0  0  0  0  0  0  0  0  0  0  0  0
   28.0928   27.4095   31.9826 N   0  0  0  0  0  0  0  0  0  0  0  0
   28.8928   27.6095   34.1826 C   0  0  0  0  0  0  0  0  0  0  0  0
   30.1928   27.6095   33.5826 C   0  0  0  0  0  0  0  0  0  0  0  0
   30.2928   27.8095   32.2826 N   0  0  0  0  0  4  0  0  0  0  0  0
   29.3928   27.2095   31.5826 C   0  0  0  0  0  0  0  0  0  0  0  0
   31.3928   28.5095   31.6826 C   0  0  0  0  0  0  0  0  0  0  0  0
   32.0928   29.2095   32.7826 C   0  0  0  0  0  0  0  0  0  0  0  0
   28.5928   27.8095   35.5826 C   0  0  0  0  0  0  0  0  0  0  0  0
   32.0928   27.9095   30.7826 C   0  0  0  0  0  0  0  0  0  0  0  0
   29.3928   27.5095   36.3826 O   0  0  0  0  0  0  0  0  0  0  0  0
   33.4928   27.8095   30.7826 C   0  0  0  0  0  0  0  0  0  0  0  0
   34.1928   27.9095   32.0826 C   0  0  0  0  0  0  0  0  0  0  0  0
   35.1928   27.2095   32.4826 O   0  0  0  0  0  0  0  0  0  0  0  0
   33.5928   29.0095   32.8826 C   0  0  0  0  0  0  0  0  0  0  0  0
   27.1928   27.8095   35.5826 N   0  0  0  0  0  0  0  0  0  0  0  0
   26.8928   28.7095   33.4826 N   0  0  0  0  0  0  0  0  0  0  0  0
   26.3928   28.6095   34.8826 C   0  0  0  0  0  0  0  0  0  0  0  0
   30.0928   26.6095   32.5826 N   0  0  0  0  0  0  0  0  0  0  0  0
  2  1  2  0
  3  1  1  0
  4  3  1  0
  5  4  1  0
  6  2  1  0
  6  5  1  0
  7  5  1  0
  8  7  2  0
  9  3  1  0
 10  7  1  0
 11  9  2  0
 12 10  2  0
 13 12  1  0
 14 13  1  0
 15  8  1  0
 15 13  2  0
 16  9  1  0
 17  1  1  0
 18 16  1  0
 18 17  1  0
 19  4  1  0
 19  6  1  0
M  END
>  <ID>  (1) 
conformer_0

$$$$
