
     RDKit          3D

 27 33  0  0  0  0  0  0  0  0999 V2000
   27.7821   27.9096   33.4258 C   0  0  0  0  0  0  0  0  0  0  0  0
   28.2821   27.5096   32.2258 N   0  0  0  0  0  2  0  0  0  0  0  0
   28.6821   27.7096   34.5258 C   0  0  0  0  0  0  0  0  0  0  0  0
   29.9821   27.6096   34.0258 C   0  0  0  0  0  0  0  0  0  0  0  0
   31.0821   27.8096   34.7258 N   0  0  0  0  0  0  0  0  0  0  0  0
   32.2821   28.0096   35.1258 C   0  0  0  0  0  0  0  0  0  0  0  0
   33.5821   27.4096   34.7258 C   0  0  0  0  0  3  0  0  0  0  0  0
   34.2821   26.9096   35.9258 C   0  0  0  0  0  0  0  0  0  0  0  0
   32.3821   28.5096   36.5258 C   0  0  0  0  0  0  0  0  0  0  0  0
   33.5821   29.0096   37.0258 C   0  0  0  0  0  0  0  0  0  0  0  0
   31.1821   28.6096   37.1258 C   0  0  0  0  0  0  0  0  0  0  0  0
   29.8821   28.8096   36.4258 C   0  0  0  0  0  0  0  0  0  0  0  0
   31.3821   29.3096   38.4258 C   0  0  0  0  0  0  0  0  0  0  0  0
   29.2821   26.7096   32.0258 C   0  0  0  0  0  0  0  0  0  0  0  0
   29.9821   26.8096   30.7258 N   0  0  0  0  0  0  0  0  0  0  0  0
   34.6821   27.9096   36.8258 C   0  0  0  0  0  0  0  0  0  0  0  0
   28.8821   28.1096   35.9258 C   0  0  0  0  0  0  0  0  0  0  0  0
   31.3821   28.7096   39.4258 O   0  0  0  0  0  0  0  0  0  0  0  0
   30.1821   26.6096   32.9258 N   0  0  0  0  0  0  0  0  0  0  0  0
   32.3821   29.0096   39.1258 N   0  0  0  0  0  0  0  0  0  0  0  0
   31.2821   26.9096   30.3258 C   0  0  0  0  0  0  0  0  0  0  0  0
   31.9821   28.2096   30.1258 C   0  0  0  0  0  0  0  0  0  0  0  0
   31.4821   26.2096   29.0258 C   0  0  0  0  0  0  0  0  0  0  0  0
   32.2821   28.4096   28.7258 C   0  0  0  0  0  0  0  0  0  0  0  0
   31.9821   27.1096   28.0258 C   0  0  0  0  0  0  0  0  0  0  0  0
   32.2821   27.0096   34.3258 C   0  0  0  0  0  0  0  0  0  0  0  0
   34.1821   28.0096   38.1258 O   0  0  0  0  0  0  0  0  0  0  0  0
  2  1  1  0
  3  1  1  0
  4  3  1  0
  5  4  1  0
  6  5  1  0
  7  6  1  0
  8  7  1  0
  9  6  1  0
 10  9  2  0
 11  9  1  0
 12 11  1  0
 13 11  1  0
 14  2  1  0
 15 14  1  0
 16  8  2  0
 16 10  1  0
 17  3  1  0
 17 12  1  0
 18 13  1  0
 19  4  1  0
 19 14  2  0
 20 13  1  0
 21 15  1  0
 22 21  1  0
 23 21  1  0
 24 22  1  0
 25 23  1  0
 25 24  1  0
 26  5  1  0
 26  6  1  0
 26  7  1  0
 27 10  1  0
 27 16  1  0
M  END
>  <ID>  (1) 
conformer_0

$$$$
