
     RDKit          3D

 19 22  0  0  0  0  0  0  0  0999 V2000
   27.9928   27.9095   33.1826 C   0  0  0  0  0  0  0  0  0  0  0  0
   28.0928   27.4095   31.9826 N   0  0  0  0  0  0  0  0  0  0  0  0
   28.8928   27.6095   34.1826 C   0  0  0  0  0  0  0  0  0  0  0  0
   30.1928   27.6095   33.5826 C   0  0  0  0  0  0  0  0  0  0  0  0
   30.2928   27.8095   32.2826 N   0  0  0  0  0  4  0  0  0  0  0  0
   29.2928   27.0095   31.6826 C   0  0  0  0  0  0  0  0  0  0  0  0
   31.4928   27.7095   31.4826 C   0  0  0  0  0  0  0  0  0  0  0  0
   31.1928   27.2095   30.1826 C   0  0  0  0  0  0  0  0  0  0  0  0
   28.5928   27.7095   35.5826 C   0  0  0  0  0  0  0  0  0  0  0  0
   32.0928   26.4095   29.4826 C   0  0  0  0  0  0  0  0  0  0  0  0
   32.5928   26.9095   32.0826 C   0  0  0  0  0  0  0  0  0  0  0  0
   33.6928   27.2095   31.1826 C   0  0  0  0  0  0  0  0  0  0  0  0
   31.8928   25.7095   28.3826 O   0  0  0  0  0  0  0  0  0  0  0  0
   30.8928   25.9095   27.4826 C   0  0  0  0  0  0  0  0  0  0  0  0
   33.3928   26.7095   29.8826 C   0  0  0  0  0  0  0  0  0  0  0  0
   29.3928   27.6095   36.3826 O   0  0  0  0  0  0  0  0  0  0  0  0
   27.1928   28.2095   35.5826 O   0  0  0  0  0  0  0  0  0  0  0  0
   30.1928   26.5095   32.5826 N   0  0  0  0  0  0  0  0  0  0  0  0
   26.6928   28.1095   34.1826 N   0  0  0  0  0  0  0  0  0  0  0  0
  2  1  2  0
  3  1  1  0
  4  3  1  0
  5  4  1  0
  6  2  1  0
  6  5  1  0
  7  5  1  0
  8  7  2  0
  9  3  1  0
 10  8  1  0
 11  7  1  0
 12 11  2  0
 13 10  1  0
 14 13  1  0
 15 10  2  0
 15 12  1  0
 16  9  2  0
 17  9  1  0
 18  4  1  0
 18  6  1  0
 19  1  1  0
 19 17  1  0
M  END
>  <ID>  (1) 
conformer_0

$$$$
