
     RDKit          3D

 16 17  0  0  0  0  0  0  0  0999 V2000
   27.9928   27.9095   33.1826 C   0  0  0  0  0  0  0  0  0  0  0  0
   28.0928   27.4095   31.9826 N   0  0  0  0  0  0  0  0  0  0  0  0
   28.8928   27.6095   34.1826 C   0  0  0  0  0  0  0  0  0  0  0  0
   30.1928   27.6095   33.5826 C   0  0  0  0  0  0  0  0  0  0  0  0
   30.2928   28.0095   32.2826 N   0  0  0  0  0  0  0  0  0  0  0  0
   29.3928   27.2095   31.5826 C   0  0  0  0  0  0  0  0  0  0  0  0
   31.4928   28.3095   31.6826 C   0  0  0  0  0  0  0  0  0  0  0  0
   28.6928   27.6095   35.5826 C   0  0  0  0  0  0  0  0  0  0  0  0
   31.5928   27.9095   30.2826 C   0  0  0  0  0  0  0  0  0  0  0  0
   32.6928   28.2095   32.3826 C   0  0  0  0  0  0  0  0  0  0  0  0
   32.5928   27.0095   29.9826 C   0  0  0  0  0  0  0  0  0  0  0  0
   33.8928   27.6095   31.8826 C   0  0  0  0  0  0  0  0  0  0  0  0
   33.6928   26.9095   30.6826 C   0  0  0  0  0  0  0  0  0  0  0  0
   29.4928   27.5095   36.4826 O   0  0  0  0  0  0  0  0  0  0  0  0
   27.2928   27.3095   35.8826 N   0  0  0  0  0  0  0  0  0  0  0  0
   28.7928   26.3095   32.0826 N   0  0  0  0  0  0  0  0  0  0  0  0
  2  1  1  0
  3  1  1  0
  4  3  2  0
  5  4  1  0
  6  2  1  0
  6  5  1  0
  7  5  1  0
  8  3  1  0
  9  7  2  0
 10  7  1  0
 11  9  1  0
 12 10  2  0
 13 11  2  0
 13 12  1  0
 14  8  2  0
 15  8  1  0
 16  6  1  0
M  END
>  <ID>  (1) 
conformer_0

$$$$
