
     RDKit          3D

 18 21  0  0  0  0  0  0  0  0999 V2000
   27.7821   27.9096   33.4258 C   0  0  0  0  0  0  0  0  0  0  0  0
   27.8821   27.6096   32.1258 N   0  0  0  0  0  0  0  0  0  0  0  0
   28.7821   27.8096   34.4258 C   0  0  0  0  0  0  0  0  0  0  0  0
   29.9821   27.5096   33.6258 C   0  0  0  0  0  0  0  0  0  0  0  0
   29.7821   26.6096   32.6258 N   0  0  0  0  0  0  0  0  0  0  0  0
   28.8821   26.9096   31.8258 C   0  0  0  0  0  0  0  0  0  0  0  0
   28.7821   28.3096   35.7258 C   0  0  0  0  0  0  0  0  0  0  0  0
   31.2821   27.9096   34.1258 C   0  0  0  0  0  0  0  0  0  0  0  0
   31.2821   28.5096   35.4258 C   0  0  0  0  0  0  0  0  0  0  0  0
   32.2821   27.1096   33.6258 C   0  0  0  0  0  0  0  0  0  0  0  0
   30.0821   28.8096   36.0258 O   0  0  0  0  0  0  0  0  0  0  0  0
   33.5821   27.6096   33.8258 C   0  0  0  0  0  0  0  0  0  0  0  0
   32.4821   28.3096   36.2258 C   0  0  0  0  0  0  0  0  0  0  0  0
   33.5821   28.0096   35.3258 C   0  0  0  0  0  0  0  0  0  0  0  0
   34.8821   28.4096   35.8258 O   0  0  0  0  0  0  0  0  0  0  0  0
   35.7821   27.7096   34.9258 C   0  0  0  0  0  0  0  0  0  0  0  0
   26.6821   28.5096   33.9258 N   0  0  0  0  0  0  0  0  0  0  0  0
   29.9821   27.7096   32.3258 N   0  0  0  0  0  0  0  0  0  0  0  0
  2  1  1  0
  3  1  2  0
  4  3  1  0
  5  4  1  0
  6  2  2  0
  6  5  1  0
  7  3  1  0
  8  4  1  0
  9  8  2  0
 10  8  1  0
 11  7  1  0
 11  9  1  0
 12 10  2  0
 13  9  1  0
 14 12  1  0
 14 13  2  0
 15 14  1  0
 16 15  1  0
 17  1  1  0
 18  4  1  0
 18  6  1  0
M  END
>  <ID>  (1) 
conformer_0

$$$$
