
     RDKit          3D

 26 31  0  0  0  0  0  0  0  0999 V2000
   27.7821   27.9096   33.4258 C   0  0  0  0  0  0  0  0  0  0  0  0
   28.2821   27.5096   32.2258 N   0  0  0  0  0  0  0  0  0  0  0  0
   28.6821   27.7096   34.5258 C   0  0  0  0  0  0  0  0  0  0  0  0
   29.9821   27.6096   34.0258 C   0  0  0  0  0  0  0  0  0  0  0  0
   31.0821   27.8096   34.7258 N   0  0  0  0  0  0  0  0  0  0  0  0
   32.2821   28.0096   35.1258 C   0  0  0  0  0  0  0  0  0  0  0  0
   33.5821   27.4096   34.7258 C   0  0  0  0  0  3  0  0  0  0  0  0
   34.2821   26.9096   35.9258 C   0  0  0  0  0  0  0  0  0  0  0  0
   32.3821   28.5096   36.5258 C   0  0  0  0  0  0  0  0  0  0  0  0
   33.5821   29.0096   37.0258 C   0  0  0  0  0  0  0  0  0  0  0  0
   29.1821   26.8096   31.8258 C   0  0  0  0  0  0  0  0  0  0  0  0
   33.5821   27.6096   37.0258 C   0  0  0  0  0  0  0  0  0  0  0  0
   28.7821   28.4096   35.8258 C   0  0  0  0  0  0  0  0  0  0  0  0
   29.7821   26.8096   30.6258 N   0  0  0  0  0  0  0  0  0  0  0  0
   29.8821   29.1096   36.3258 C   0  0  0  0  0  0  0  0  0  0  0  0
   31.0821   28.7096   37.0258 C   0  0  0  0  0  0  0  0  0  0  0  0
   31.0821   28.3096   38.4258 C   0  0  0  0  0  0  0  0  0  0  0  0
   29.9821   26.7096   32.9258 N   0  0  0  0  0  2  0  0  0  0  0  0
   31.7821   28.3096   39.3258 O   0  0  0  0  0  0  0  0  0  0  0  0
   31.9821   27.4096   38.7258 N   0  0  0  0  0  0  0  0  0  0  0  0
   31.7821   29.0096   34.3258 C   0  0  0  0  0  0  0  0  0  0  0  0
   31.1821   26.7096   30.3258 C   0  0  0  0  0  0  0  0  0  0  0  0
   31.8821   27.9096   29.9258 C   0  0  0  0  0  0  0  0  0  0  0  0
   31.3821   26.2096   28.9258 C   0  0  0  0  0  0  0  0  0  0  0  0
   32.4821   28.3096   28.6258 C   0  0  0  0  0  0  0  0  0  0  0  0
   32.0821   26.9096   27.9258 C   0  0  0  0  0  0  0  0  0  0  0  0
  2  1  1  0
  3  1  1  0
  4  3  1  0
  5  4  1  0
  6  5  1  0
  7  6  1  0
  8  7  1  0
  9  6  1  0
 10  9  1  0
 11  2  2  0
 12  8  2  0
 12  9  1  0
 12 10  1  0
 13  3  1  0
 14 11  1  0
 15 13  1  0
 16  9  1  0
 16 15  1  0
 17 16  1  0
 18  4  1  0
 18 11  1  0
 19 17  1  0
 20 17  1  0
 21  5  1  0
 21  6  1  0
 22 14  1  0
 23 22  1  0
 24 22  1  0
 25 23  2  0
 26 24  2  0
 26 25  1  0
M  END
>  <ID>  (1) 
conformer_0

$$$$
