
     RDKit          3D

 16 18  0  0  0  0  0  0  0  0999 V2000
   28.1446   27.8271   33.2450 C   0  0  0  0  0  0  0  0  0  0  0  0
   28.3446   27.5271   31.9450 N   0  0  0  0  0  0  0  0  0  0  0  0
   29.0446   27.7271   34.2450 C   0  0  0  0  0  0  0  0  0  0  0  0
   30.3446   27.4271   33.6450 C   0  0  0  0  0  0  0  0  0  0  0  0
   30.4446   28.0271   32.4450 N   0  0  0  0  0  4  0  0  0  0  0  0
   29.5446   27.3271   31.5450 C   0  0  0  0  0  3  0  0  0  0  0  0
   28.7446   27.9271   35.6450 C   0  0  0  0  0  0  0  0  0  0  0  0
   31.7446   28.2271   31.9450 C   0  0  0  0  0  0  0  0  0  0  0  0
   31.7446   28.2271   30.4450 C   0  0  0  0  0  0  0  0  0  0  0  0
   32.6446   27.4271   32.6450 C   0  0  0  0  0  0  0  0  0  0  0  0
   29.6446   27.5271   36.5450 O   0  0  0  0  0  0  0  0  0  0  0  0
   33.9446   27.3271   31.9450 C   0  0  0  0  0  0  0  0  0  0  0  0
   32.7446   27.4271   29.7450 C   0  0  0  0  0  0  0  0  0  0  0  0
   33.7446   26.9271   30.6450 C   0  0  0  0  0  0  0  0  0  0  0  0
   30.3446   26.6271   32.5450 N   0  0  0  0  0  0  0  0  0  0  0  0
   27.4446   27.8271   36.0450 N   0  0  0  0  0  0  0  0  0  0  0  0
  2  1  2  0
  3  1  1  0
  4  3  2  0
  5  4  1  0
  6  2  1  0
  6  5  1  0
  7  3  1  0
  8  5  1  0
  9  8  2  0
 10  8  1  0
 11  7  2  0
 12 10  2  0
 13  9  1  0
 14 12  1  0
 14 13  2  0
 15  4  1  0
 15  6  1  0
 16  7  1  0
M  END
>  <ID>  (1) 
conformer_0

$$$$
