
     RDKit          3D

 16 18  0  0  0  0  0  0  0  0999 V2000
   28.1446   27.8271   33.2450 C   0  0  0  0  0  0  0  0  0  0  0  0
   28.2446   27.4271   32.0450 N   0  0  0  0  0  0  0  0  0  0  0  0
   28.9446   27.6271   34.3450 C   0  0  0  0  0  0  0  0  0  0  0  0
   30.2446   27.4271   33.6450 C   0  0  0  0  0  0  0  0  0  0  0  0
   30.4446   27.9271   32.4450 N   0  0  0  0  0  4  0  0  0  0  0  0
   29.5446   27.3271   31.5450 C   0  0  0  0  0  3  0  0  0  0  0  0
   31.7446   28.3271   32.0449 C   0  0  0  0  0  0  0  0  0  0  0  0
   28.8446   28.2271   35.6450 C   0  0  0  0  0  0  0  0  0  0  0  0
   32.2446   28.0271   30.7449 C   0  0  0  0  0  0  0  0  0  0  0  0
   32.5446   28.5271   33.1449 C   0  0  0  0  0  0  0  0  0  0  0  0
   28.3446   27.4271   36.7449 C   0  0  0  0  0  0  0  0  0  0  0  0
   33.4446   27.3271   30.7449 C   0  0  0  0  0  0  0  0  0  0  0  0
   34.4446   27.5271   31.7449 C   0  0  0  0  0  0  0  0  0  0  0  0
   33.9446   28.4271   32.8449 C   0  0  0  0  0  0  0  0  0  0  0  0
   28.5446   28.2271   37.9450 C   0  0  0  0  0  0  0  0  0  0  0  0
   30.2446   26.6271   32.5450 N   0  0  0  0  0  0  0  0  0  0  0  0
  2  1  2  0
  3  1  1  0
  4  3  2  0
  5  4  1  0
  6  2  1  0
  6  5  1  0
  7  5  1  0
  8  3  1  0
  9  7  2  0
 10  7  1  0
 11  8  1  0
 12  9  1  0
 13 12  2  0
 14 10  2  0
 14 13  1  0
 15 11  1  0
 16  4  1  0
 16  6  1  0
M  END
>  <ID>  (1) 
conformer_0

$$$$
