
     RDKit          3D

 21 22  0  0  0  0  0  0  0  0999 V2000
   27.9928   27.9095   33.1826 C   0  0  0  0  0  0  0  0  0  0  0  0
   28.0928   27.4095   31.9826 N   0  0  0  0  0  0  0  0  0  0  0  0
   28.8928   27.6095   34.1826 C   0  0  0  0  0  0  0  0  0  0  0  0
   30.1928   27.6095   33.4826 C   0  0  0  0  0  0  0  0  0  0  0  0
   30.2928   27.7095   32.1826 N   0  0  0  0  0  0  0  0  0  0  0  0
   29.1928   26.9095   31.5826 C   0  0  0  0  0  0  0  0  0  0  0  0
   28.8928   27.9095   35.5826 C   0  0  0  0  0  0  0  0  0  0  0  0
   31.4928   27.5095   31.4826 C   0  0  0  0  0  0  0  0  0  0  0  0
   31.2928   27.1095   30.0826 C   0  0  0  0  0  0  0  0  0  0  0  0
   32.2928   26.4095   29.4826 C   0  0  0  0  0  0  0  0  0  0  0  0
   32.7928   27.1095   31.8826 C   0  0  0  0  0  0  0  0  0  0  0  0
   33.8928   27.4095   31.1826 C   0  0  0  0  0  0  0  0  0  0  0  0
   29.6928   27.7095   36.3826 O   0  0  0  0  0  0  0  0  0  0  0  0
   32.1928   25.8095   28.2826 O   0  0  0  0  0  0  0  0  0  0  0  0
   30.9928   26.0095   27.5826 C   0  0  0  0  0  0  0  0  0  0  0  0
   35.0928   27.0095   31.7826 O   0  0  0  0  0  0  0  0  0  0  0  0
   33.5928   26.8095   29.8826 C   0  0  0  0  0  0  0  0  0  0  0  0
   27.5928   28.0095   36.1826 O   0  0  0  0  0  0  0  0  0  0  0  0
   31.3928   27.9095   34.1826 C   0  0  0  0  0  0  0  0  0  0  0  0
   28.6928   26.2095   32.2826 N   0  0  0  0  0  0  0  0  0  0  0  0
   26.7928   28.6095   33.5826 N   0  0  0  0  0  0  0  0  0  0  0  0
  2  1  1  0
  3  1  1  0
  4  3  2  0
  5  4  1  0
  6  2  1  0
  6  5  1  0
  7  3  1  0
  8  5  1  0
  9  8  2  0
 10  9  1  0
 11  8  1  0
 12 11  2  0
 13  7  2  0
 14 10  1  0
 15 14  1  0
 16 12  1  0
 17 10  2  0
 17 12  1  0
 18  7  1  0
 19  4  1  0
 20  6  1  0
 21  1  1  0
M  END
>  <ID>  (1) 
conformer_0

$$$$
