
     RDKit          3D

 27 32  0  0  0  0  0  0  0  0999 V2000
   27.9928   27.9095   33.1826 C   0  0  0  0  0  0  0  0  0  0  0  0
   28.0928   27.4095   31.9826 N   0  0  0  0  0  0  0  0  0  0  0  0
   28.8928   27.6095   34.1826 C   0  0  0  0  0  0  0  0  0  0  0  0
   30.1928   27.6095   33.5826 C   0  0  0  0  0  0  0  0  0  0  0  0
   30.2928   27.8095   32.2826 N   0  0  0  0  0  4  0  0  0  0  0  0
   29.2928   27.1095   31.6826 C   0  0  0  0  0  3  0  0  0  0  0  0
   31.5928   27.6095   31.6826 C   0  0  0  0  0  0  0  0  0  0  0  0
   31.3928   26.9095   30.3826 C   0  0  0  0  0  0  0  0  0  0  0  0
   28.5928   27.7095   35.5826 C   0  0  0  0  0  0  0  0  0  0  0  0
   32.3928   26.9095   32.6826 C   0  0  0  0  0  0  0  0  0  0  0  0
   32.4928   26.4095   29.6826 C   0  0  0  0  0  0  0  0  0  0  0  0
   29.5928   27.8095   36.3826 O   0  0  0  0  0  0  0  0  0  0  0  0
   31.9928   26.0095   28.3826 C   0  0  0  0  0  0  0  0  0  0  0  0
   30.5928   26.2095   28.3826 O   0  0  0  0  0  0  0  0  0  0  0  0
   31.3928   27.3095   27.9826 C   0  0  0  0  0  0  0  0  0  0  0  0
   29.9928   26.6095   32.5826 N   0  0  0  0  0  0  0  0  0  0  0  0
   27.5928   26.9095   35.9826 N   0  0  0  0  0  0  0  0  0  0  0  0
   33.6928   27.1095   32.1826 C   0  0  0  0  0  0  0  0  0  0  0  0
   34.1928   28.4095   31.9826 C   0  0  0  0  0  0  0  0  0  0  0  0
   34.6928   29.0095   33.1826 C   0  0  0  0  0  0  0  0  0  0  0  0
   34.9928   28.1095   34.1826 C   0  0  0  0  0  0  0  0  0  0  0  0
   33.8928   27.3095   34.5826 C   0  0  0  0  0  0  0  0  0  0  0  0
   33.9928   26.9095   35.9826 C   0  0  0  0  0  0  0  0  0  0  0  0
   34.6928   27.5095   36.9826 C   0  0  0  0  0  0  0  0  0  0  0  0
   35.7928   28.3095   36.4826 C   0  0  0  0  0  0  0  0  0  0  0  0
   35.8928   28.6095   35.1826 C   0  0  0  0  0  0  0  0  0  0  0  0
   33.3928   26.8095   33.4826 N   0  0  0  0  0  0  0  0  0  0  0  0
  2  1  2  0
  3  1  1  0
  4  3  2  0
  5  4  1  0
  6  2  1  0
  6  5  1  0
  7  5  1  0
  8  7  1  0
  9  3  1  0
 10  7  1  0
 11  8  2  3
 12  9  2  0
 13 11  1  0
 14 13  1  0
 15 13  1  0
 15 14  1  0
 16  4  1  0
 16  6  1  0
 17  9  1  0
 18 10  1  0
 19 18  1  0
 20 19  1  0
 21 20  1  0
 22 21  2  0
 23 22  1  0
 24 23  2  0
 25 24  1  0
 26 21  1  0
 26 25  2  0
 27 10  1  0
 27 18  1  0
 27 22  1  0
M  END
>  <ID>  (1) 
conformer_0

$$$$
