
     RDKit          3D

 24 27  0  0  0  0  0  0  0  0999 V2000
   27.9928   27.9095   33.1826 C   0  0  0  0  0  0  0  0  0  0  0  0
   28.0928   27.4095   31.9826 N   0  0  0  0  0  0  0  0  0  0  0  0
   28.8928   27.6095   34.1826 C   0  0  0  0  0  0  0  0  0  0  0  0
   30.1928   27.6095   33.5826 C   0  0  0  0  0  0  0  0  0  0  0  0
   30.2928   27.8095   32.2826 N   0  0  0  0  0  4  0  0  0  0  0  0
   29.2928   27.0095   31.6826 C   0  0  0  0  0  3  0  0  0  0  0  0
   31.4928   27.8095   31.4826 C   0  0  0  0  0  0  0  0  0  0  0  0
   31.3928   27.3095   30.1826 C   0  0  0  0  0  0  0  0  0  0  0  0
   28.6928   28.2095   35.4826 C   0  0  0  0  0  0  0  0  0  0  0  0
   32.3928   26.4095   29.6826 C   0  0  0  0  0  0  0  0  0  0  0  0
   32.6928   27.2095   32.0826 C   0  0  0  0  0  0  0  0  0  0  0  0
   33.8928   27.3095   31.3826 C   0  0  0  0  0  0  0  0  0  0  0  0
   34.9928   27.0095   32.0826 O   0  0  0  0  0  0  0  0  0  0  0  0
   31.9928   25.7095   28.5826 O   0  0  0  0  0  0  0  0  0  0  0  0
   30.6928   26.2095   28.2826 C   0  0  0  0  0  0  0  0  0  0  0  0
   33.6928   26.6095   30.0826 C   0  0  0  0  0  0  0  0  0  0  0  0
   29.5928   27.6095   36.3826 O   0  0  0  0  0  0  0  0  0  0  0  0
   30.7928   28.3095   36.5826 C   0  0  0  0  0  0  0  0  0  0  0  0
   31.2928   28.4095   37.8826 C   0  0  0  0  0  0  0  0  0  0  0  0
   31.1928   29.1095   35.5826 C   0  0  0  0  0  0  0  0  0  0  0  0
   32.4928   29.6095   35.6826 C   0  0  0  0  0  0  0  0  0  0  0  0
   33.2928   28.8095   36.5826 C   0  0  0  0  0  0  0  0  0  0  0  0
   32.6928   28.5095   37.8826 C   0  0  0  0  0  0  0  0  0  0  0  0
   30.0928   26.5095   32.5826 N   0  0  0  0  0  0  0  0  0  0  0  0
  2  1  2  0
  3  1  1  0
  4  3  2  0
  5  4  1  0
  6  2  1  0
  6  5  1  0
  7  5  1  0
  8  7  2  0
  9  3  1  0
 10  8  1  0
 11  7  1  0
 12 11  2  0
 13 12  1  0
 14 10  1  0
 15 14  1  0
 16 10  2  0
 16 12  1  0
 17  9  1  0
 18 17  1  0
 19 18  2  0
 20 18  1  0
 21 20  2  0
 22 21  1  0
 23 19  1  0
 23 22  2  0
 24  4  1  0
 24  6  1  0
M  END
>  <ID>  (1) 
conformer_0

$$$$
