
     RDKit          3D

 15 15  0  0  0  0  0  0  0  0999 V2000
   27.7821   27.9096   33.4258 C   0  0  0  0  0  0  0  0  0  0  0  0
   27.9821   27.6096   32.2258 N   0  0  0  0  0  0  0  0  0  0  0  0
   26.6821   28.4096   33.9258 N   0  0  0  0  0  0  0  0  0  0  0  0
   29.2821   27.4096   31.7258 C   0  0  0  0  0  0  0  0  0  0  0  0
   30.1821   27.8096   32.7258 N   0  0  0  0  0  0  0  0  0  0  0  0
   28.6821   27.5096   34.5258 C   0  0  0  0  0  0  0  0  0  0  0  0
   29.9821   27.3096   33.9258 C   0  0  0  0  0  0  0  0  0  0  0  0
   31.0821   27.6096   34.8258 N   0  0  0  0  0  0  0  0  0  0  0  0
   32.0821   28.4096   34.1258 C   0  0  0  0  0  0  0  0  0  0  0  0
   32.6821   27.8096   32.9258 C   0  0  0  0  0  0  0  0  0  0  0  0
   31.0821   27.9096   36.2258 C   0  0  0  0  0  0  0  0  0  0  0  0
   32.2821   28.7096   36.6258 C   0  0  0  0  0  0  0  0  0  0  0  0
   32.3821   29.9096   35.9258 O   0  0  0  0  0  0  0  0  0  0  0  0
   32.4821   26.4096   32.7258 O   0  0  0  0  0  0  0  0  0  0  0  0
   28.4821   27.5096   35.8258 O   0  0  0  0  0  0  0  0  0  0  0  0
  2  1  2  0
  3  1  1  0
  4  2  1  0
  5  4  2  0
  6  1  1  0
  7  5  1  0
  7  6  2  0
  8  7  1  0
  9  8  1  0
 10  9  2  3
 11  8  1  0
 12 11  1  0
 13 12  1  0
 14 10  1  0
 15  6  1  0
M  END
>  <ID>  (1) 
conformer_0

$$$$
