
     RDKit          3D

 25 29  0  0  0  0  0  0  0  0999 V2000
   27.8029   27.8027   33.5023 C   0  0  0  0  0  0  0  0  0  0  0  0
   28.0029   27.6027   32.2023 N   0  0  0  0  0  0  0  0  0  0  0  0
   28.9029   27.5027   34.4023 C   0  0  0  0  0  0  0  0  0  0  0  0
   30.1029   27.6027   33.6023 C   0  0  0  0  0  0  0  0  0  0  0  0
   29.0029   27.0027   31.7023 C   0  0  0  0  0  0  0  0  0  0  0  0
   26.8029   28.5027   34.0023 N   0  0  0  0  0  0  0  0  0  0  0  0
   30.0029   26.7027   32.6023 N   0  0  0  0  0  0  0  0  0  0  0  0
   28.8029   28.3027   35.6023 C   0  0  0  0  0  0  0  0  0  0  0  0
   31.3029   27.4027   34.3023 N   0  0  0  0  0  0  0  0  0  0  0  0
   32.5029   27.1027   33.5023 C   0  0  0  0  0  0  0  0  0  0  0  0
   32.6029   27.4027   32.1023 C   0  0  0  0  0  0  0  0  0  0  0  0
   33.9029   27.9027   31.6023 C   0  0  0  0  0  0  0  0  0  0  0  0
   29.0029   28.2027   36.8023 N   0  0  0  0  0  0  0  0  0  0  0  0
   31.6029   27.4027   31.0023 C   0  0  0  0  0  0  0  0  0  0  0  0
   32.1029   28.1027   29.8023 C   0  0  0  0  0  0  0  0  0  0  0  0
   32.3029   26.7027   29.9023 C   0  0  0  0  0  0  0  0  0  0  0  0
   33.8029   26.6027   31.5023 C   0  0  0  0  0  0  0  0  0  0  0  0
   29.4029   28.7027   37.9023 C   0  0  0  0  0  0  0  0  0  0  0  0
   30.5029   28.9027   38.5023 C   0  0  0  0  0  0  0  0  0  0  0  0
   31.0029   29.6027   39.5023 N   0  0  0  0  0  0  0  0  0  0  0  0
   32.2029   29.9027   39.9023 C   0  0  0  0  0  0  0  0  0  0  0  0
   33.1029   29.6027   40.9023 C   0  0  0  0  0  0  0  0  0  0  0  0
   31.5029   28.0027   37.9023 C   0  0  0  0  0  0  0  0  0  0  0  0
   32.9029   27.9027   38.4023 C   0  0  0  0  0  0  0  0  0  0  0  0
   32.9029   28.6027   39.7023 N   0  0  0  0  0  0  0  0  0  0  0  0
  2  1  1  0
  3  1  1  0
  4  3  1  0
  5  2  2  0
  6  1  2  0
  7  4  2  0
  7  5  1  0
  8  3  1  0
  9  4  1  0
 10  9  1  0
 11 10  1  0
 12 11  1  0
 13  8  1  0
 14 11  1  0
 15 14  1  0
 16 14  1  0
 16 15  1  0
 17 11  1  0
 17 12  1  0
 18 13  1  0
 19 18  1  0
 20 19  2  0
 21 20  1  0
 22 21  1  0
 23 19  1  0
 24 23  2  0
 25 21  1  0
 25 22  1  0
 25 24  1  0
M  END
>  <ID>  (1) 
conformer_0

$$$$
