
     RDKit          3D

 21 24  0  0  0  0  0  0  0  0999 V2000
   27.9928   27.9095   33.1826 C   0  0  0  0  0  0  0  0  0  0  0  0
   28.0928   27.4095   31.9826 N   0  0  0  0  0  0  0  0  0  0  0  0
   28.8928   27.6095   34.1826 C   0  0  0  0  0  0  0  0  0  0  0  0
   30.1928   27.6095   33.5826 C   0  0  0  0  0  0  0  0  0  0  0  0
   30.2928   27.8095   32.2826 N   0  0  0  0  0  0  0  0  0  0  0  0
   29.2928   27.0095   31.6826 C   0  0  0  0  0  0  0  0  0  0  0  0
   31.4928   27.8095   31.4826 C   0  0  0  0  0  0  0  0  0  0  0  0
   31.3928   27.3095   30.1826 C   0  0  0  0  0  0  0  0  0  0  0  0
   28.6928   28.2095   35.4826 C   0  0  0  0  0  0  0  0  0  0  0  0
   32.3928   26.4095   29.6826 C   0  0  0  0  0  0  0  0  0  0  0  0
   32.6928   27.2095   32.0826 C   0  0  0  0  0  0  0  0  0  0  0  0
   33.8928   27.3095   31.3826 C   0  0  0  0  0  0  0  0  0  0  0  0
   34.9928   27.0095   32.0826 O   0  0  0  0  0  0  0  0  0  0  0  0
   31.8928   25.7095   28.5826 O   0  0  0  0  0  0  0  0  0  0  0  0
   30.5928   26.1095   28.2826 C   0  0  0  0  0  0  0  0  0  0  0  0
   33.6928   26.7095   30.0826 C   0  0  0  0  0  0  0  0  0  0  0  0
   29.3928   27.8095   36.3826 O   0  0  0  0  0  0  0  0  0  0  0  0
   27.2928   28.7095   35.4826 C   0  0  0  0  0  0  0  0  0  0  0  0
   26.7928   28.2095   33.9826 N   0  0  0  0  0  0  0  0  0  0  0  0
   31.4928   27.5095   34.2826 C   0  0  0  0  0  0  0  0  0  0  0  0
   32.6928   27.1095   33.4826 O   0  0  0  0  0  0  0  0  0  0  0  0
  2  1  2  0
  3  1  1  0
  4  3  1  0
  5  4  1  0
  6  2  1  0
  6  5  1  0
  7  5  1  0
  8  7  1  0
  9  3  1  0
 10  8  2  0
 11  7  2  0
 12 11  1  0
 13 12  1  0
 14 10  1  0
 15 14  1  0
 16 10  1  0
 16 12  2  0
 17  9  2  0
 18  9  1  0
 19  1  1  0
 19 18  1  0
 20  4  2  0
 21 11  1  0
 21 20  1  0
M  END
>  <ID>  (1) 
conformer_0

$$$$
