
     RDKit          3D

 17 19  0  0  0  0  0  0  0  0999 V2000
   27.7821   27.9096   33.4258 C   0  0  0  0  0  0  0  0  0  0  0  0
   27.9821   27.6096   32.2258 N   0  0  0  0  0  0  0  0  0  0  0  0
   28.9821   26.8096   31.8258 C   0  0  0  0  0  0  0  0  0  0  0  0
   26.6821   28.3096   34.1258 N   0  0  0  0  0  0  0  0  0  0  0  0
   30.0821   26.9096   31.0258 N   0  0  0  0  0  0  0  0  0  0  0  0
   28.8821   27.5096   34.2258 N   0  0  0  0  0  0  0  0  0  0  0  0
   30.1821   27.2096   32.3258 C   0  0  0  0  0  0  0  0  0  0  0  0
   30.0821   27.5096   33.6258 C   0  0  0  0  0  0  0  0  0  0  0  0
   30.9821   26.9096   30.1258 C   0  0  0  0  0  0  0  0  0  0  0  0
   31.2821   26.2096   28.9258 C   0  0  0  0  0  0  0  0  0  0  0  0
   28.5821   27.7096   35.5258 C   0  0  0  0  0  0  0  0  0  0  0  0
   27.7821   28.4096   36.3258 C   0  0  0  0  0  0  0  0  0  0  0  0
   30.0821   25.8096   28.3258 O   0  0  0  0  0  0  0  0  0  0  0  0
   27.4821   27.2096   35.9258 N   0  0  0  0  0  0  0  0  0  0  0  0
   32.1821   27.7096   30.5258 C   0  0  0  0  0  0  0  0  0  0  0  0
   31.9821   28.9096   31.1258 O   0  0  0  0  0  0  0  0  0  0  0  0
   33.2821   26.8096   30.4258 C   0  0  0  0  0  0  0  0  0  0  0  0
  2  1  1  0
  3  2  2  0
  4  1  1  0
  5  3  1  0
  6  1  1  0
  7  3  1  0
  7  5  1  0
  8  6  1  0
  8  7  2  0
  9  5  1  0
 10  9  1  0
 11  6  1  0
 12 11  1  0
 13 10  1  0
 14 11  1  0
 14 12  2  0
 15  9  1  0
 16 15  1  0
 17 15  1  0
M  END
>  <ID>  (1) 
conformer_0

$$$$
