
     RDKit          3D

 18 21  0  0  0  0  0  0  0  0999 V2000
  -27.5930   35.9160  -43.9947 O   0  0  0  0  0  0  0  0  0  0  0  0
  -26.8930   35.3160  -44.8947 C   0  0  0  0  0  0  0  0  0  0  0  0
  -26.8930   33.9160  -45.2947 N   0  0  0  0  0  0  0  0  0  0  0  0
  -25.4930   35.7160  -44.9947 C   0  0  0  0  0  0  0  0  0  0  0  0
  -24.4930   34.7160  -44.9947 C   0  0  0  0  0  0  0  0  0  0  0  0
  -24.6930   33.5160  -44.3947 C   0  0  0  0  0  0  0  0  0  0  0  0
  -23.3930   35.1160  -45.6947 C   0  0  0  0  0  0  0  0  0  0  0  0
  -23.3930   36.0160  -46.7947 C   0  0  0  0  0  0  0  0  0  0  0  0
  -26.1930   33.1160  -44.4947 C   0  0  0  0  0  0  0  0  0  0  0  0
  -24.5930   36.7160  -47.2947 C   0  0  0  0  0  0  0  0  0  0  0  0
  -22.0930   34.5160  -45.2947 C   0  0  0  0  0  0  0  0  0  0  0  0
  -22.0930   36.1160  -47.3947 C   0  0  0  0  0  0  0  0  0  0  0  0
  -26.4930   31.7160  -44.3947 C   0  0  0  0  0  0  0  0  0  0  0  0
  -25.6930   33.7160  -43.2947 C   0  0  0  0  0  0  0  0  0  0  0  0
  -25.4930   36.7160  -46.0947 C   0  0  0  0  0  0  0  0  0  0  0  0
  -22.2930   33.3160  -44.4947 C   0  0  0  0  0  0  0  0  0  0  0  0
  -23.5930   32.6160  -44.2947 C   0  0  0  0  0  0  0  0  0  0  0  0
  -23.6930   31.4160  -43.9947 O   0  0  0  0  0  0  0  0  0  0  0  0
  2  1  2  0
  3  2  1  0
  4  2  1  0
  5  4  1  0
  6  5  1  0
  7  5  1  0
  8  7  2  0
  9  3  1  0
  9  6  1  0
 10  8  1  0
 11  7  1  0
 12  8  1  0
 13  9  1  0
 14  6  1  0
 14  9  1  0
 15  4  1  0
 15 10  1  0
 16 11  1  0
 17  6  1  0
 17 16  1  0
 18 17  2  0
M  END
>  <ID>  (1) 
conformer_0

$$$$
