
     RDKit          3D

 19 22  0  0  0  0  0  0  0  0999 V2000
  -27.3657   35.7293  -43.6013 O   0  0  0  0  0  0  0  0  0  0  0  0
  -26.8657   35.3293  -44.8013 C   0  0  0  0  0  0  0  0  0  0  0  0
  -26.9657   34.0293  -45.2013 N   0  0  0  0  0  0  0  0  0  0  0  0
  -25.5657   35.9293  -45.1013 C   0  0  0  0  0  0  0  0  0  0  0  0
  -24.5657   34.8293  -45.2013 C   0  0  0  0  0  0  0  0  0  0  0  0
  -24.7657   33.6293  -44.5013 C   0  0  0  0  0  0  0  0  0  0  0  0
  -23.2657   35.1293  -45.7013 C   0  0  0  0  0  0  0  0  0  0  0  0
  -22.1657   34.4293  -45.0013 C   0  0  0  0  0  0  0  0  0  0  0  0
  -23.1657   35.9293  -46.9013 C   0  0  0  0  0  0  0  0  0  0  0  0
  -23.6657   32.7293  -44.1013 C   0  0  0  0  0  0  0  0  0  0  0  0
  -26.0657   33.0293  -44.7013 C   0  0  0  0  0  0  0  0  0  0  0  0
  -26.4657   31.7293  -44.5013 C   0  0  0  0  0  0  0  0  0  0  0  0
  -24.9657   37.0293  -45.9013 C   0  0  0  0  0  0  0  0  0  0  0  0
  -24.4657   36.6293  -47.2013 C   0  0  0  0  0  0  0  0  0  0  0  0
  -22.3657   33.2293  -44.2013 C   0  0  0  0  0  0  0  0  0  0  0  0
  -27.6657   31.4293  -43.8013 C   0  0  0  0  0  0  0  0  0  0  0  0
  -27.4657   30.4293  -42.7013 C   0  0  0  0  0  0  0  0  0  0  0  0
  -26.1657   29.8293  -42.7013 C   0  0  0  0  0  0  0  0  0  0  0  0
  -27.0657   29.3293  -43.5013 O   0  0  0  0  0  0  0  0  0  0  0  0
  2  1  2  0
  3  2  1  0
  4  2  1  0
  5  4  1  0
  6  5  2  0
  7  5  1  0
  8  7  2  0
  9  7  1  0
 10  6  1  0
 11  3  1  0
 11  6  1  0
 12 11  1  0
 13  4  1  0
 14  9  1  0
 14 13  1  0
 15  8  1  0
 15 10  2  0
 16 12  1  0
 17 16  1  0
 18 17  1  0
 19 17  1  0
 19 18  1  0
M  END
>  <ID>  (1) 
conformer_0

$$$$
