
     RDKit          3D

 21 26  0  0  0  0  0  0  0  0999 V2000
  -23.8822   33.5638  -44.1802 C   0  0  0  0  0  0  0  0  0  0  0  0
  -23.7822   34.6638  -45.1802 C   0  0  0  0  0  0  0  0  0  0  0  0
  -22.3822   34.9638  -45.4802 C   0  0  0  0  0  0  0  0  0  0  0  0
  -21.3822   33.9638  -45.1802 C   0  0  0  0  0  0  0  0  0  0  0  0
  -22.8822   32.6638  -43.9802 C   0  0  0  0  0  0  0  0  0  0  0  0
  -24.8822   35.4638  -45.5802 C   0  0  0  0  0  0  0  0  0  0  0  0
  -24.7822   36.0638  -46.8802 C   0  0  0  0  0  0  0  0  0  0  0  0
  -23.4822   36.0638  -47.4802 C   0  0  0  0  0  0  0  0  0  0  0  0
  -22.1822   35.8638  -46.5802 C   0  0  0  0  0  0  0  0  0  0  0  0
  -26.1822   35.4638  -44.8802 C   0  0  0  0  0  0  0  0  0  0  0  0
  -23.1822   37.0638  -48.4802 C   0  0  0  0  0  0  0  0  0  0  0  0
  -26.0822   34.7638  -43.5802 C   0  0  0  0  0  0  0  0  0  0  0  0
  -25.2822   33.5638  -43.5802 C   0  0  0  0  0  0  0  0  0  0  0  0
  -21.4822   33.4638  -43.7802 C   0  0  0  0  0  0  0  0  0  0  0  0
  -26.4822   35.4638  -42.4802 O   0  0  0  0  0  0  0  0  0  0  0  0
  -22.5822   31.2638  -44.3802 C   0  0  0  0  0  0  0  0  0  0  0  0
  -25.9822   36.4638  -47.5802 C   0  0  0  0  0  0  0  0  0  0  0  0
  -22.0822   37.0638  -49.1802 O   0  0  0  0  0  0  0  0  0  0  0  0
  -24.3822   37.3638  -49.2802 C   0  0  0  0  0  0  0  0  0  0  0  0
  -24.1822   38.1638  -48.1802 C   0  0  0  0  0  0  0  0  0  0  0  0
  -25.3822   37.5638  -46.9802 C   0  0  0  0  0  0  0  0  0  0  0  0
  2  1  1  0
  3  2  1  0
  4  3  1  0
  5  1  1  0
  6  2  1  0
  7  6  1  0
  8  7  1  0
  9  3  1  0
  9  8  1  0
 10  6  1  0
 11  8  1  0
 12 10  1  0
 13  1  1  0
 13 12  1  0
 14  4  1  0
 14  5  1  0
 15 12  1  0
 16  5  1  0
 17  7  1  0
 18 11  1  0
 19 11  1  0
 20 11  1  0
 20 19  1  0
 21  7  1  0
 21 17  1  0
 21 20  1  0
M  END
>  <ID>  (1) 
conformer_0

$$$$
