
     RDKit          3D

 19 23  0  0  0  0  0  0  0  0999 V2000
  -27.5669   35.8013  -43.8500 O   0  0  0  0  0  0  0  0  0  0  0  0
  -26.7669   35.3013  -44.7500 C   0  0  0  0  0  0  0  0  0  0  0  0
  -26.9669   34.1013  -45.3500 N   0  0  0  0  0  0  0  0  0  0  0  0
  -25.3669   35.8013  -44.7500 C   0  0  0  0  0  0  0  0  0  0  0  0
  -24.4669   34.7013  -45.1500 C   0  0  0  0  0  0  0  0  0  0  0  0
  -24.8669   33.5013  -44.5500 C   0  0  0  0  0  0  0  0  0  0  0  0
  -23.0669   35.0013  -45.3500 C   0  0  0  0  0  0  0  0  0  0  0  0
  -22.0669   34.0013  -44.9500 C   0  0  0  0  0  0  0  0  0  0  0  0
  -23.8669   32.5013  -44.0500 C   0  0  0  0  0  0  0  0  0  0  0  0
  -22.8669   35.7013  -46.6500 C   0  0  0  0  0  0  0  0  0  0  0  0
  -26.2669   33.1013  -44.6500 C   0  0  0  0  0  0  0  0  0  0  0  0
  -25.8669   33.6013  -43.3500 C   0  0  0  0  0  0  0  0  0  0  0  0
  -24.1669   36.2013  -47.1500 C   0  0  0  0  0  0  0  0  0  0  0  0
  -25.1669   35.5013  -46.1500 C   0  0  0  0  0  0  0  0  0  0  0  0
  -22.4669   32.7013  -44.4500 C   0  0  0  0  0  0  0  0  0  0  0  0
  -21.9669   31.5013  -44.8500 O   0  0  0  0  0  0  0  0  0  0  0  0
  -20.6669   31.4013  -45.4500 C   0  0  0  0  0  0  0  0  0  0  0  0
  -26.7669   31.7013  -44.6500 C   0  0  0  0  0  0  0  0  0  0  0  0
  -25.6669   35.8013  -47.0500 O   0  0  0  0  0  0  0  0  0  0  0  0
  2  1  2  0
  3  2  1  0
  4  2  1  0
  5  4  1  0
  6  5  1  0
  7  5  1  0
  8  7  1  0
  9  6  1  0
 10  7  1  0
 11  3  1  0
 11  6  1  0
 12  6  1  0
 12 11  1  0
 13 10  1  0
 14  4  1  0
 14  5  1  0
 14 13  1  0
 15  8  1  0
 15  9  1  0
 16 15  1  0
 17 16  1  0
 18 11  1  0
 19 14  1  0
M  END
>  <ID>  (1) 
conformer_0

$$$$
