
     RDKit          3D

  6  5  0  0  0  0  0  0  0  0999 V2000
  -23.5642   35.2041  -45.8911 C   0  0  0  0  0  0  0  0  0  0  0  0
  -24.2642   35.9041  -46.9911 C   0  0  0  0  0  0  0  0  0  0  0  0
  -23.4642   36.6041  -47.9911 C   0  0  0  0  0  0  0  0  0  0  0  0
  -22.1642   35.1041  -46.1911 C   0  0  0  0  0  0  0  0  0  0  0  0
  -21.2642   34.2041  -45.4911 C   0  0  0  0  0  0  0  0  0  0  0  0
  -22.1642   36.5041  -48.2911 C   0  0  0  0  0  0  0  0  0  0  0  0
  2  1  1  0
  3  2  1  0
  4  1  1  0
  5  4  1  0
  6  3  2  0
M  END
>  <ID>  (1) 
conformer_0

$$$$
