
     RDKit          3D

 18 21  0  0  0  0  0  0  0  0999 V2000
  -27.3657   35.7293  -43.6013 O   0  0  0  0  0  0  0  0  0  0  0  0
  -26.8657   35.3293  -44.8013 C   0  0  0  0  0  0  0  0  0  0  0  0
  -26.9657   34.0293  -45.2013 N   0  0  0  0  0  0  0  0  0  0  0  0
  -25.5657   35.9293  -45.1013 C   0  0  0  0  0  0  0  0  0  0  0  0
  -24.5657   34.8293  -45.2013 C   0  0  0  0  0  0  0  0  0  0  0  0
  -24.7657   33.6293  -44.5013 C   0  0  0  0  0  0  0  0  0  0  0  0
  -23.2657   35.1293  -45.7013 C   0  0  0  0  0  0  0  0  0  0  0  0
  -22.1657   34.4293  -45.0013 C   0  0  0  0  0  0  0  0  0  0  0  0
  -23.1657   35.9293  -46.9013 C   0  0  0  0  0  0  0  0  0  0  0  0
  -23.7657   32.6293  -44.3013 C   0  0  0  0  0  0  0  0  0  0  0  0
  -26.1657   33.0293  -44.6013 C   0  0  0  0  0  0  0  0  0  0  0  0
  -25.1657   36.9293  -46.1013 C   0  0  0  0  0  0  0  0  0  0  0  0
  -24.3657   36.6293  -47.3013 C   0  0  0  0  0  0  0  0  0  0  0  0
  -26.0657   31.6293  -44.1013 C   0  0  0  0  0  0  0  0  0  0  0  0
  -22.3657   33.2293  -44.3013 C   0  0  0  0  0  0  0  0  0  0  0  0
  -27.3657   31.0293  -43.7013 C   0  0  0  0  0  0  0  0  0  0  0  0
  -26.9657   30.1293  -42.6013 C   0  0  0  0  0  0  0  0  0  0  0  0
  -26.9657   29.5293  -43.8013 O   0  0  0  0  0  0  0  0  0  0  0  0
  2  1  2  0
  3  2  1  0
  4  2  1  0
  5  4  1  0
  6  5  1  0
  7  5  1  0
  8  7  1  0
  9  7  2  0
 10  6  1  0
 11  3  1  0
 11  6  2  0
 12  4  1  0
 13  9  1  0
 13 12  1  0
 14 11  1  0
 15  8  2  0
 15 10  1  0
 16 14  1  0
 17 16  1  0
 18 16  1  0
 18 17  1  0
M  END
>  <ID>  (1) 
conformer_0

$$$$
