
     RDKit          3D

 20 22  0  0  0  0  0  0  0  0999 V2000
  -27.5930   35.9160  -43.9947 O   0  0  0  0  0  0  0  0  0  0  0  0
  -26.8930   35.3160  -44.8947 C   0  0  0  0  0  0  0  0  0  0  0  0
  -26.8930   33.9160  -45.2947 N   0  0  0  0  0  0  0  0  0  0  0  0
  -25.9930   36.0160  -45.7947 C   0  0  0  0  0  0  0  0  0  0  0  0
  -24.7930   35.2160  -45.9947 C   0  0  0  0  0  0  0  0  0  0  0  0
  -24.4930   34.4160  -44.8947 C   0  0  0  0  0  0  0  0  0  0  0  0
  -23.6930   35.8160  -46.6947 C   0  0  0  0  0  0  0  0  0  0  0  0
  -22.3930   35.2160  -46.2947 C   0  0  0  0  0  0  0  0  0  0  0  0
  -23.1930   33.9160  -44.3947 C   0  0  0  0  0  0  0  0  0  0  0  0
  -23.6930   36.7160  -47.7947 C   0  0  0  0  0  0  0  0  0  0  0  0
  -22.0930   34.1160  -45.3947 C   0  0  0  0  0  0  0  0  0  0  0  0
  -22.4930   37.0160  -48.5947 C   0  0  0  0  0  0  0  0  0  0  0  0
  -25.5930   33.4160  -44.6947 C   0  0  0  0  0  0  0  0  0  0  0  0
  -24.8930   36.8160  -48.4947 O   0  0  0  0  0  0  0  0  0  0  0  0
  -26.6930   36.1160  -47.0947 C   0  0  0  0  0  0  0  0  0  0  0  0
  -25.3930   32.2160  -44.6947 O   0  0  0  0  0  0  0  0  0  0  0  0
  -23.8930   37.3160  -46.4947 C   0  0  0  0  0  0  0  0  0  0  0  0
  -27.6930   33.3160  -44.1947 C   0  0  0  0  0  0  0  0  0  0  0  0
  -27.7930   32.0160  -43.5947 C   0  0  0  0  0  0  0  0  0  0  0  0
  -22.9930   33.0160  -43.3947 O   0  0  0  0  0  0  0  0  0  0  0  0
  2  1  2  0
  3  2  1  0
  4  2  1  0
  5  4  1  0
  6  5  1  0
  7  5  1  0
  8  7  1  0
  9  6  1  0
 10  7  1  0
 11  8  1  0
 11  9  1  0
 12 10  1  0
 13  3  1  0
 13  6  1  0
 14 10  1  0
 15  4  1  0
 16 13  2  0
 17  7  1  0
 17 10  1  0
 18  3  1  0
 19 18  1  0
 20  9  1  0
M  END
>  <ID>  (1) 
conformer_0

$$$$
