
     RDKit          3D

 19 22  0  0  0  0  0  0  0  0999 V2000
  -27.6581   35.8129  -43.7355 O   0  0  0  0  0  0  0  0  0  0  0  0
  -26.7581   35.4129  -44.5355 C   0  0  0  0  0  0  0  0  0  0  0  0
  -26.9581   34.4129  -45.4355 N   0  0  0  0  0  0  0  0  0  0  0  0
  -25.3581   35.8129  -44.7355 C   0  0  0  0  0  0  0  0  0  0  0  0
  -24.8581   35.5129  -46.0355 C   0  0  0  0  0  0  0  0  0  0  0  0
  -23.8581   36.1129  -46.8355 C   0  0  0  0  0  0  0  0  0  0  0  0
  -24.6581   34.6129  -45.0355 C   0  0  0  0  0  0  0  0  0  0  0  0
  -25.0581   33.4129  -44.5355 C   0  0  0  0  0  0  0  0  0  0  0  0
  -24.2581   36.8129  -48.0355 C   0  0  0  0  0  0  0  0  0  0  0  0
  -23.2581   37.5129  -48.7355 C   0  0  0  0  0  0  0  0  0  0  0  0
  -24.1581   32.4129  -44.1355 C   0  0  0  0  0  0  0  0  0  0  0  0
  -22.4581   35.8129  -46.8355 C   0  0  0  0  0  0  0  0  0  0  0  0
  -23.1581   37.4129  -50.1355 C   0  0  0  0  0  0  0  0  0  0  0  0
  -22.8581   33.0129  -44.3355 C   0  0  0  0  0  0  0  0  0  0  0  0
  -23.9581   37.1129  -51.2355 C   0  0  0  0  0  0  0  0  0  0  0  0
  -23.1581   34.4129  -44.7355 C   0  0  0  0  0  0  0  0  0  0  0  0
  -25.0581   32.3129  -44.8355 O   0  0  0  0  0  0  0  0  0  0  0  0
  -27.3581   35.6129  -46.1355 C   0  0  0  0  0  0  0  0  0  0  0  0
  -27.7581   33.4129  -45.1355 O   0  0  0  0  0  0  0  0  0  0  0  0
  2  1  1  0
  3  2  1  0
  4  2  1  0
  5  4  1  0
  6  5  1  0
  7  4  1  0
  7  5  1  0
  8  7  1  0
  9  6  1  0
 10  9  1  0
 11  8  1  0
 12  6  1  0
 13 10  1  0
 14 11  1  0
 15 13  1  0
 16  7  1  0
 16 14  2  0
 17  8  1  0
 17 11  1  0
 18  2  1  0
 18  3  1  0
 19  3  1  0
M  END
>  <ID>  (1) 
conformer_0

$$$$
