
     RDKit          3D

 18 20  0  0  0  0  0  0  0  0999 V2000
  -27.5930   35.9160  -43.9947 O   0  0  0  0  0  0  0  0  0  0  0  0
  -26.8930   35.3160  -44.8947 C   0  0  0  0  0  0  0  0  0  0  0  0
  -26.8930   33.9160  -45.2947 N   0  0  0  0  0  0  0  0  0  0  0  0
  -25.4930   35.7160  -44.9947 C   0  0  0  0  0  0  0  0  0  0  0  0
  -24.4930   34.7160  -44.9947 C   0  0  0  0  0  0  0  0  0  0  0  0
  -23.1930   34.9160  -45.6947 C   0  0  0  0  0  0  0  0  0  0  0  0
  -23.4930   35.9160  -46.6947 C   0  0  0  0  0  0  0  0  0  0  0  0
  -24.7930   36.3160  -47.2947 C   0  0  0  0  0  0  0  0  0  0  0  0
  -24.6930   33.5160  -44.1947 C   0  0  0  0  0  0  0  0  0  0  0  0
  -21.8930   34.6160  -45.0947 C   0  0  0  0  0  0  0  0  0  0  0  0
  -22.2930   36.2160  -47.4947 C   0  0  0  0  0  0  0  0  0  0  0  0
  -26.0930   33.2160  -44.2947 C   0  0  0  0  0  0  0  0  0  0  0  0
  -26.4930   31.8160  -44.1947 C   0  0  0  0  0  0  0  0  0  0  0  0
  -27.7930   31.6160  -44.4947 O   0  0  0  0  0  0  0  0  0  0  0  0
  -24.1930   37.1160  -46.2947 C   0  0  0  0  0  0  0  0  0  0  0  0
  -26.4930   36.1160  -45.9947 C   0  0  0  0  0  0  0  0  0  0  0  0
  -21.5930   36.2160  -48.3947 N   0  0  0  0  0  0  0  0  0  0  0  0
  -25.8930   31.0160  -43.0947 C   0  0  0  0  0  0  0  0  0  0  0  0
  2  1  1  0
  3  2  1  0
  4  2  1  0
  5  4  1  0
  6  5  1  0
  7  6  1  0
  8  7  1  0
  9  5  1  0
 10  6  1  0
 11  7  1  0
 12  3  1  0
 12  9  1  0
 13 12  1  0
 14 13  1  0
 15  7  1  0
 15  8  1  0
 16  2  1  0
 16  4  1  0
 17 11  3  0
 18 13  1  0
M  END
>  <ID>  (1) 
conformer_0

$$$$
