
     RDKit          3D

 20 23  0  0  0  0  0  0  0  0999 V2000
  -28.0001   36.1411  -44.0821 O   0  0  0  0  0  0  0  0  0  0  0  0
  -27.1001   35.4411  -44.8821 C   0  0  0  0  0  0  0  0  0  0  0  0
  -25.8001   34.9411  -44.3821 C   0  0  0  0  0  0  0  0  0  0  0  0
  -27.0001   35.8411  -46.2821 C   0  0  0  0  0  0  0  0  0  0  0  0
  -24.7001   35.2411  -45.2821 C   0  0  0  0  0  0  0  0  0  0  0  0
  -24.5001   35.8411  -46.5821 C   0  0  0  0  0  0  0  0  0  0  0  0
  -23.2001   36.0411  -47.0821 C   0  0  0  0  0  0  0  0  0  0  0  0
  -22.0001   35.6411  -46.3821 C   0  0  0  0  0  0  0  0  0  0  0  0
  -22.2001   34.5411  -45.3821 C   0  0  0  0  0  0  0  0  0  0  0  0
  -23.5001   34.3411  -44.8821 C   0  0  0  0  0  0  0  0  0  0  0  0
  -21.0001   33.8411  -44.8821 C   0  0  0  0  0  0  0  0  0  0  0  0
  -25.9001   33.9411  -43.2821 C   0  0  0  0  0  0  0  0  0  0  0  0
  -22.9001   36.6411  -48.3821 C   0  0  0  0  0  0  0  0  0  0  0  0
  -25.8001   36.2411  -47.0821 C   0  0  0  0  0  0  0  0  0  0  0  0
  -23.9001   33.1411  -44.0821 C   0  0  0  0  0  0  0  0  0  0  0  0
  -24.9001   32.8411  -43.1821 C   0  0  0  0  0  0  0  0  0  0  0  0
  -22.6001   36.8411  -45.8821 C   0  0  0  0  0  0  0  0  0  0  0  0
  -25.5001   31.5411  -43.5821 O   0  0  0  0  0  0  0  0  0  0  0  0
  -23.9001   37.6411  -48.8821 C   0  0  0  0  0  0  0  0  0  0  0  0
  -21.8001   36.7411  -48.8821 O   0  0  0  0  0  0  0  0  0  0  0  0
  2  1  1  0
  3  2  2  0
  4  2  1  0
  5  3  1  0
  6  5  2  0
  7  6  1  0
  8  7  1  0
  9  8  1  0
 10  5  1  0
 10  9  1  0
 11  9  1  0
 12  3  1  0
 13  7  1  0
 14  4  2  0
 14  6  1  0
 15 10  1  0
 16 12  1  0
 16 15  1  0
 17  7  1  0
 17  8  1  0
 18 16  1  0
 19 13  1  0
 20 13  2  0
M  END
>  <ID>  (1) 
conformer_0

$$$$
