
     RDKit          3D

 21 25  0  0  0  0  0  0  0  0999 V2000
  -28.0001   36.1411  -44.0821 O   0  0  0  0  0  0  0  0  0  0  0  0
  -27.1001   35.4411  -44.8821 C   0  0  0  0  0  0  0  0  0  0  0  0
  -25.8001   34.9411  -44.3821 C   0  0  0  0  0  0  0  0  0  0  0  0
  -27.0001   35.9411  -46.2821 C   0  0  0  0  0  0  0  0  0  0  0  0
  -24.8001   34.9411  -45.4821 C   0  0  0  0  0  0  0  0  0  0  0  0
  -24.5001   35.7411  -46.4821 C   0  0  0  0  0  0  0  0  0  0  0  0
  -23.2001   35.9411  -47.0821 C   0  0  0  0  0  0  0  0  0  0  0  0
  -22.0001   35.5411  -46.3821 C   0  0  0  0  0  0  0  0  0  0  0  0
  -22.2001   34.6411  -45.2821 C   0  0  0  0  0  0  0  0  0  0  0  0
  -23.5001   34.2411  -44.8821 C   0  0  0  0  0  0  0  0  0  0  0  0
  -21.1001   34.0411  -44.5821 C   0  0  0  0  0  0  0  0  0  0  0  0
  -23.1001   37.0411  -48.0821 C   0  0  0  0  0  0  0  0  0  0  0  0
  -23.9001   33.4411  -43.6821 C   0  0  0  0  0  0  0  0  0  0  0  0
  -25.1001   32.6411  -43.2821 C   0  0  0  0  0  0  0  0  0  0  0  0
  -26.1001   33.5411  -43.7821 C   0  0  0  0  0  0  0  0  0  0  0  0
  -25.8001   36.2411  -47.0821 C   0  0  0  0  0  0  0  0  0  0  0  0
  -27.5001   33.0411  -43.9821 C   0  0  0  0  0  0  0  0  0  0  0  0
  -27.5001   31.6411  -43.8821 C   0  0  0  0  0  0  0  0  0  0  0  0
  -26.7001   30.6411  -43.1821 C   0  0  0  0  0  0  0  0  0  0  0  0
  -25.4001   31.2411  -43.5821 O   0  0  0  0  0  0  0  0  0  0  0  0
  -22.4001   36.9411  -46.0821 C   0  0  0  0  0  0  0  0  0  0  0  0
  2  1  1  0
  3  2  1  0
  4  2  1  0
  5  3  1  0
  6  5  1  0
  7  6  1  0
  8  7  1  0
  9  8  1  0
 10  5  1  0
 10  9  2  0
 11  9  1  0
 12  7  1  0
 13 10  1  0
 14 13  1  0
 15  3  1  0
 15 14  1  0
 16  4  1  0
 16  6  1  0
 17 15  1  0
 18 17  1  0
 19 18  1  0
 20 14  1  0
 20 19  1  0
 21  7  1  0
 21  8  1  0
M  END
>  <ID>  (1) 
conformer_0

$$$$
