
     RDKit          3D

 21 26  0  0  0  0  0  0  0  0999 V2000
  -27.5669   35.8013  -43.8500 O   0  0  0  0  0  0  0  0  0  0  0  0
  -26.7669   35.3013  -44.7500 C   0  0  0  0  0  0  0  0  0  0  0  0
  -26.9669   34.1013  -45.3500 N   0  0  0  0  0  0  0  0  0  0  0  0
  -25.3669   35.8013  -44.7500 C   0  0  0  0  0  0  0  0  0  0  0  0
  -24.2669   35.0013  -45.2500 C   0  0  0  0  0  0  0  0  0  0  0  0
  -23.5669   35.7013  -46.3500 C   0  0  0  0  0  0  0  0  0  0  0  0
  -24.5669   36.4013  -47.1500 C   0  0  0  0  0  0  0  0  0  0  0  0
  -25.9669   36.1013  -47.0500 C   0  0  0  0  0  0  0  0  0  0  0  0
  -22.2669   35.6013  -46.5500 C   0  0  0  0  0  0  0  0  0  0  0  0
  -23.4669   34.0013  -44.5500 C   0  0  0  0  0  0  0  0  0  0  0  0
  -24.0669   37.4013  -48.0500 C   0  0  0  0  0  0  0  0  0  0  0  0
  -21.9669   34.0013  -44.5500 C   0  0  0  0  0  0  0  0  0  0  0  0
  -21.3669   34.9013  -45.6500 C   0  0  0  0  0  0  0  0  0  0  0  0
  -27.2669   33.0013  -44.4500 C   0  0  0  0  0  0  0  0  0  0  0  0
  -26.4669   31.8013  -44.5500 C   0  0  0  0  0  0  0  0  0  0  0  0
  -25.1669   32.1013  -44.6500 O   0  0  0  0  0  0  0  0  0  0  0  0
  -26.8669   30.9013  -43.4500 C   0  0  0  0  0  0  0  0  0  0  0  0
  -26.3669   36.4013  -45.7500 C   0  0  0  0  0  0  0  0  0  0  0  0
  -24.7669   33.5013  -44.6500 C   0  0  0  0  0  0  0  0  0  0  0  0
  -25.6669   30.4013  -43.1500 O   0  0  0  0  0  0  0  0  0  0  0  0
  -25.8669   31.3013  -42.3500 C   0  0  0  0  0  0  0  0  0  0  0  0
  2  1  1  0
  3  2  1  0
  4  2  1  0
  5  4  1  0
  6  5  1  0
  7  6  1  0
  8  7  1  0
  9  6  2  0
 10  5  1  0
 11  7  1  0
 12 10  1  0
 13  9  1  0
 13 12  2  0
 14  3  1  0
 15 14  1  0
 16 15  1  0
 17 15  1  0
 18  2  1  0
 18  4  1  0
 18  8  1  0
 19  5  1  0
 19 10  1  0
 19 16  1  0
 20 17  1  0
 21 17  1  0
 21 20  1  0
M  END
>  <ID>  (1) 
conformer_0

$$$$
