
     RDKit          3D

 15 17  0  0  0  0  0  0  0  0999 V2000
  -27.5930   35.9160  -43.9947 O   0  0  0  0  0  0  0  0  0  0  0  0
  -26.8930   35.3160  -44.8947 C   0  0  0  0  0  0  0  0  0  0  0  0
  -26.8930   33.9160  -45.2947 N   0  0  0  0  0  0  0  0  0  0  0  0
  -25.9930   36.0160  -45.7947 C   0  0  0  0  0  0  0  0  0  0  0  0
  -24.7930   35.2160  -45.9947 C   0  0  0  0  0  0  0  0  0  0  0  0
  -24.4930   34.4160  -44.8947 C   0  0  0  0  0  0  0  0  0  0  0  0
  -23.6930   35.8160  -46.6947 C   0  0  0  0  0  0  0  0  0  0  0  0
  -22.3930   35.3160  -46.1947 C   0  0  0  0  0  0  0  0  0  0  0  0
  -23.3930   33.8160  -44.4947 C   0  0  0  0  0  0  0  0  0  0  0  0
  -24.0930   36.9160  -47.4947 C   0  0  0  0  0  0  0  0  0  0  0  0
  -22.0930   34.4160  -45.1947 C   0  0  0  0  0  0  0  0  0  0  0  0
  -25.6930   33.4160  -44.8947 C   0  0  0  0  0  0  0  0  0  0  0  0
  -25.2930   32.2160  -44.5947 O   0  0  0  0  0  0  0  0  0  0  0  0
  -26.6930   36.3160  -46.9947 C   0  0  0  0  0  0  0  0  0  0  0  0
  -25.4930   36.7160  -47.9947 C   0  0  0  0  0  0  0  0  0  0  0  0
  2  1  2  0
  3  2  1  0
  4  2  1  0
  5  4  1  0
  6  5  2  0
  7  5  1  0
  8  7  2  0
  9  6  1  0
 10  7  1  0
 11  8  1  0
 11  9  2  0
 12  3  1  0
 12  6  1  0
 13 12  2  0
 14  4  1  0
 15 10  1  0
 15 14  1  0
M  END
>  <ID>  (1) 
conformer_0

$$$$
