
     RDKit          3D

 21 24  0  0  0  0  0  0  0  0999 V2000
  -27.5930   35.9160  -43.9947 O   0  0  0  0  0  0  0  0  0  0  0  0
  -26.8930   35.3160  -44.8947 C   0  0  0  0  0  0  0  0  0  0  0  0
  -26.9930   34.0160  -45.2947 N   0  0  0  0  0  0  0  0  0  0  0  0
  -25.4930   35.8160  -44.9947 C   0  0  0  0  0  0  0  0  0  0  0  0
  -24.4930   34.8160  -44.6947 C   0  0  0  0  0  0  0  0  0  0  0  0
  -24.8930   33.5160  -44.3947 C   0  0  0  0  0  0  0  0  0  0  0  0
  -23.2930   35.0160  -45.4947 C   0  0  0  0  0  0  0  0  0  0  0  0
  -23.3930   36.0160  -46.5947 C   0  0  0  0  0  0  0  0  0  0  0  0
  -24.5930   36.1160  -47.2947 C   0  0  0  0  0  0  0  0  0  0  0  0
  -26.2930   33.1160  -44.3947 C   0  0  0  0  0  0  0  0  0  0  0  0
  -21.9930   34.4160  -45.2947 C   0  0  0  0  0  0  0  0  0  0  0  0
  -26.6930   31.7160  -44.0947 C   0  0  0  0  0  0  0  0  0  0  0  0
  -22.0930   36.0160  -47.2947 C   0  0  0  0  0  0  0  0  0  0  0  0
  -23.6930   32.6160  -44.3947 C   0  0  0  0  0  0  0  0  0  0  0  0
  -24.6930   37.1160  -48.3947 C   0  0  0  0  0  0  0  0  0  0  0  0
  -23.3930   37.7160  -48.5947 C   0  0  0  0  0  0  0  0  0  0  0  0
  -22.2930   36.8160  -48.6947 C   0  0  0  0  0  0  0  0  0  0  0  0
  -22.4930   33.3160  -44.1947 C   0  0  0  0  0  0  0  0  0  0  0  0
  -25.4930   36.8160  -46.0947 C   0  0  0  0  0  0  0  0  0  0  0  0
  -21.4930   32.3160  -44.2947 O   0  0  0  0  0  0  0  0  0  0  0  0
  -21.6930   31.2160  -45.0947 C   0  0  0  0  0  0  0  0  0  0  0  0
  2  1  2  0
  3  2  1  0
  4  2  1  0
  5  4  1  0
  6  5  1  0
  7  5  1  0
  8  7  1  0
  9  8  1  0
 10  3  1  0
 10  6  1  0
 11  7  1  0
 12 10  1  0
 13  8  1  0
 14  6  1  0
 15  9  1  0
 16 15  1  0
 17 13  1  0
 17 16  1  0
 18 11  1  0
 18 14  1  0
 19  4  1  0
 19  9  1  0
 20 18  1  0
 21 20  1  0
M  END
>  <ID>  (1) 
conformer_0

$$$$
