
     RDKit          3D

 20 23  0  0  0  0  0  0  0  0999 V2000
  -27.5930   35.9160  -43.9947 O   0  0  0  0  0  0  0  0  0  0  0  0
  -26.8930   35.3160  -44.8947 C   0  0  0  0  0  0  0  0  0  0  0  0
  -26.8930   33.9160  -45.2947 N   0  0  0  0  0  0  0  0  0  0  0  0
  -25.9930   36.0160  -45.7947 C   0  0  0  0  0  0  0  0  0  0  0  0
  -24.7930   35.2160  -45.9947 C   0  0  0  0  0  0  0  0  0  0  0  0
  -24.4930   34.3160  -44.8947 C   0  0  0  0  0  0  0  0  0  0  0  0
  -23.6930   35.8160  -46.6947 C   0  0  0  0  0  0  0  0  0  0  0  0
  -22.2930   35.5160  -46.2947 C   0  0  0  0  0  0  0  0  0  0  0  0
  -23.1930   33.8160  -44.5947 C   0  0  0  0  0  0  0  0  0  0  0  0
  -24.1930   36.7160  -47.6947 C   0  0  0  0  0  0  0  0  0  0  0  0
  -22.0930   34.5160  -45.2947 C   0  0  0  0  0  0  0  0  0  0  0  0
  -25.5930   33.4160  -44.6947 C   0  0  0  0  0  0  0  0  0  0  0  0
  -26.5930   36.2160  -47.0947 C   0  0  0  0  0  0  0  0  0  0  0  0
  -25.5930   36.7160  -48.0947 C   0  0  0  0  0  0  0  0  0  0  0  0
  -25.7930   32.6160  -43.4947 C   0  0  0  0  0  0  0  0  0  0  0  0
  -27.0930   31.9160  -43.6947 C   0  0  0  0  0  0  0  0  0  0  0  0
  -26.9930   30.5160  -43.3947 C   0  0  0  0  0  0  0  0  0  0  0  0
  -25.7930   30.2160  -42.6947 C   0  0  0  0  0  0  0  0  0  0  0  0
  -24.9930   31.4160  -42.8947 O   0  0  0  0  0  0  0  0  0  0  0  0
  -20.9930   33.6160  -45.6947 F   0  0  0  0  0  0  0  0  0  0  0  0
  2  1  2  0
  3  2  1  0
  4  2  1  0
  5  4  1  0
  6  5  2  0
  7  5  1  0
  8  7  2  0
  9  6  1  0
 10  7  1  0
 11  8  1  0
 11  9  2  0
 12  3  1  0
 12  6  1  0
 13  4  1  0
 14 10  1  0
 14 13  1  0
 15 12  1  0
 16 15  1  0
 17 16  1  0
 18 17  1  0
 19 15  1  0
 19 18  1  0
 20 11  1  0
M  END
>  <ID>  (1) 
conformer_0

$$$$
