
     RDKit          3D

 21 24  0  0  0  0  0  0  0  0999 V2000
  -27.5669   35.8013  -43.8500 O   0  0  0  0  0  0  0  0  0  0  0  0
  -26.7669   35.3013  -44.7500 C   0  0  0  0  0  0  0  0  0  0  0  0
  -26.9669   34.1013  -45.3500 N   0  0  0  0  0  0  0  0  0  0  0  0
  -25.3669   35.8013  -44.7500 C   0  0  0  0  0  0  0  0  0  0  0  0
  -24.4669   34.7013  -44.9500 C   0  0  0  0  0  0  0  0  0  0  0  0
  -24.8669   33.4013  -44.3500 C   0  0  0  0  0  0  0  0  0  0  0  0
  -23.2669   35.0013  -45.6500 C   0  0  0  0  0  0  0  0  0  0  0  0
  -23.4669   36.1013  -46.6500 C   0  0  0  0  0  0  0  0  0  0  0  0
  -24.8669   36.1013  -47.1500 C   0  0  0  0  0  0  0  0  0  0  0  0
  -21.9669   34.6013  -45.2500 C   0  0  0  0  0  0  0  0  0  0  0  0
  -22.3669   36.3013  -47.6500 C   0  0  0  0  0  0  0  0  0  0  0  0
  -25.8669   33.5013  -43.3500 C   0  0  0  0  0  0  0  0  0  0  0  0
  -26.9669   32.5013  -43.5500 C   0  0  0  0  0  0  0  0  0  0  0  0
  -26.5669   31.6013  -44.6500 C   0  0  0  0  0  0  0  0  0  0  0  0
  -24.0669   32.2013  -44.3500 C   0  0  0  0  0  0  0  0  0  0  0  0
  -23.4669   37.2013  -45.6500 C   0  0  0  0  0  0  0  0  0  0  0  0
  -25.9669   36.2013  -45.9500 C   0  0  0  0  0  0  0  0  0  0  0  0
  -22.0669   33.6013  -44.1500 C   0  0  0  0  0  0  0  0  0  0  0  0
  -22.5669   32.3013  -44.5500 C   0  0  0  0  0  0  0  0  0  0  0  0
  -25.9669   31.3013  -43.4500 O   0  0  0  0  0  0  0  0  0  0  0  0
  -27.5669   34.8013  -44.5500 C   0  0  0  0  0  0  0  0  0  0  0  0
  4  2  1  0
  5  4  1  0
  6  5  1  0
  7  5  1  0
  8  7  1  0
  9  8  1  0
 10  7  1  0
 11  8  1  0
 12  6  1  0
 13 12  1  0
 14 13  1  0
 15  6  1  0
 16  8  1  0
 17  2  1  0
 17  4  1  0
 17  9  1  0
 18 10  1  0
 19 15  1  0
 19 18  1  0
 20 13  1  0
 20 14  1  0
 21  1  1  0
 21  2  1  0
 21  3  1  0
M  END
>  <ID>  (1) 
conformer_0

$$$$
