
     RDKit          3D

 21 24  0  0  0  0  0  0  0  0999 V2000
  -27.5930   35.9160  -43.9947 O   0  0  0  0  0  0  0  0  0  0  0  0
  -26.8930   35.3160  -44.8947 C   0  0  0  0  0  0  0  0  0  0  0  0
  -26.9930   34.0160  -45.2947 N   0  0  0  0  0  0  0  0  0  0  0  0
  -25.4930   35.8160  -44.9947 C   0  0  0  0  0  0  0  0  0  0  0  0
  -24.4930   34.8160  -44.6947 C   0  0  0  0  0  0  0  0  0  0  0  0
  -24.8930   33.5160  -44.2947 C   0  0  0  0  0  0  0  0  0  0  0  0
  -23.2930   34.9160  -45.3947 C   0  0  0  0  0  0  0  0  0  0  0  0
  -23.3930   36.0160  -46.3947 C   0  0  0  0  0  0  0  0  0  0  0  0
  -24.5930   36.2160  -47.1947 C   0  0  0  0  0  0  0  0  0  0  0  0
  -22.0930   34.2160  -45.1947 C   0  0  0  0  0  0  0  0  0  0  0  0
  -23.7930   32.5160  -44.3947 C   0  0  0  0  0  0  0  0  0  0  0  0
  -26.1930   33.1160  -44.4947 C   0  0  0  0  0  0  0  0  0  0  0  0
  -22.0930   35.9160  -47.0947 C   0  0  0  0  0  0  0  0  0  0  0  0
  -26.6930   31.7160  -44.2947 C   0  0  0  0  0  0  0  0  0  0  0  0
  -24.3930   37.0160  -48.3947 C   0  0  0  0  0  0  0  0  0  0  0  0
  -21.8930   36.7160  -48.2947 C   0  0  0  0  0  0  0  0  0  0  0  0
  -22.9930   37.3160  -48.7947 C   0  0  0  0  0  0  0  0  0  0  0  0
  -22.9930   37.5160  -50.0947 O   0  0  0  0  0  0  0  0  0  0  0  0
  -23.0930   37.2160  -51.3947 C   0  0  0  0  0  0  0  0  0  0  0  0
  -22.3930   33.0160  -44.3947 C   0  0  0  0  0  0  0  0  0  0  0  0
  -25.5930   36.8160  -46.0947 C   0  0  0  0  0  0  0  0  0  0  0  0
  2  1  2  0
  3  2  1  0
  4  2  1  0
  5  4  1  0
  6  5  1  0
  7  5  1  0
  8  7  1  0
  9  8  1  0
 10  7  1  0
 11  6  1  0
 12  3  1  0
 12  6  1  0
 13  8  1  0
 14 12  1  0
 15  9  1  0
 16 13  2  0
 17 15  1  0
 17 16  1  0
 18 17  1  0
 19 18  1  0
 20 10  1  0
 20 11  1  0
 21  4  1  0
 21  9  1  0
M  END
>  <ID>  (1) 
conformer_0

$$$$
