
     RDKit          3D

 19 23  0  0  0  0  0  0  0  0999 V2000
  -27.5669   35.8013  -43.8500 O   0  0  0  0  0  0  0  0  0  0  0  0
  -26.7669   35.3013  -44.7500 C   0  0  0  0  0  0  0  0  0  0  0  0
  -26.8669   34.1013  -45.4500 N   0  0  0  0  0  0  0  0  0  0  0  0
  -25.4669   36.0013  -44.9500 C   0  0  0  0  0  0  0  0  0  0  0  0
  -24.4669   35.0013  -45.0500 C   0  0  0  0  0  0  0  0  0  0  0  0
  -24.6669   33.6013  -44.6500 C   0  0  0  0  0  0  0  0  0  0  0  0
  -23.1669   35.5013  -45.5500 C   0  0  0  0  0  0  0  0  0  0  0  0
  -22.0669   34.7013  -45.1500 C   0  0  0  0  0  0  0  0  0  0  0  0
  -23.0669   36.0013  -46.9500 C   0  0  0  0  0  0  0  0  0  0  0  0
  -23.5669   32.8013  -44.4500 C   0  0  0  0  0  0  0  0  0  0  0  0
  -22.2669   33.5013  -44.3500 C   0  0  0  0  0  0  0  0  0  0  0  0
  -24.3669   36.6013  -47.3500 C   0  0  0  0  0  0  0  0  0  0  0  0
  -25.1669   37.0013  -46.1500 C   0  0  0  0  0  0  0  0  0  0  0  0
  -26.0669   33.1013  -44.6500 C   0  0  0  0  0  0  0  0  0  0  0  0
  -25.6669   33.7013  -43.3500 C   0  0  0  0  0  0  0  0  0  0  0  0
  -26.4669   31.7013  -44.6500 C   0  0  0  0  0  0  0  0  0  0  0  0
  -27.3669   31.0013  -43.7500 C   0  0  0  0  0  0  0  0  0  0  0  0
  -26.7669   30.2013  -42.6500 C   0  0  0  0  0  0  0  0  0  0  0  0
  -27.0669   29.6013  -43.8500 O   0  0  0  0  0  0  0  0  0  0  0  0
  2  1  2  0
  3  2  1  0
  4  2  1  0
  5  4  1  0
  6  5  1  0
  7  5  1  0
  8  7  1  0
  9  7  1  0
 10  6  1  0
 11  8  1  0
 11 10  1  0
 12  9  1  0
 13  4  1  0
 13 12  1  0
 14  3  1  0
 14  6  1  0
 15  6  1  0
 15 14  1  0
 16 14  1  0
 17 16  1  0
 18 17  1  0
 19 17  1  0
 19 18  1  0
M  END
>  <ID>  (1) 
conformer_0

$$$$
