
     RDKit          3D

 20 23  0  0  0  0  0  0  0  0999 V2000
  -28.0001   36.1411  -44.0821 O   0  0  0  0  0  0  0  0  0  0  0  0
  -27.1001   35.4411  -44.8821 C   0  0  0  0  0  0  0  0  0  0  0  0
  -25.8001   34.9411  -44.3821 C   0  0  0  0  0  0  0  0  0  0  0  0
  -27.0001   35.8411  -46.2821 C   0  0  0  0  0  0  0  0  0  0  0  0
  -24.7001   35.2411  -45.2821 C   0  0  0  0  0  0  0  0  0  0  0  0
  -24.6001   36.5411  -45.9821 C   0  0  0  0  0  0  0  0  0  0  0  0
  -23.5001   34.5411  -45.0821 C   0  0  0  0  0  0  0  0  0  0  0  0
  -23.5001   33.4411  -44.0821 C   0  0  0  0  0  0  0  0  0  0  0  0
  -24.7001   32.6411  -44.1821 C   0  0  0  0  0  0  0  0  0  0  0  0
  -22.4001   35.1411  -45.8821 C   0  0  0  0  0  0  0  0  0  0  0  0
  -24.2001   36.3411  -47.3821 C   0  0  0  0  0  0  0  0  0  0  0  0
  -25.9001   33.4411  -44.0821 C   0  0  0  0  0  0  0  0  0  0  0  0
  -24.7001   31.4411  -43.5821 O   0  0  0  0  0  0  0  0  0  0  0  0
  -22.1001   33.1411  -43.6821 C   0  0  0  0  0  0  0  0  0  0  0  0
  -22.8001   35.8411  -47.0821 C   0  0  0  0  0  0  0  0  0  0  0  0
  -22.1001   37.0411  -47.0821 O   0  0  0  0  0  0  0  0  0  0  0  0
  -22.6001   38.1411  -46.3821 C   0  0  0  0  0  0  0  0  0  0  0  0
  -24.8001   37.1411  -46.8821 O   0  0  0  0  0  0  0  0  0  0  0  0
  -23.8001   37.6411  -45.5821 C   0  0  0  0  0  0  0  0  0  0  0  0
  -26.9001   32.9411  -44.8821 O   0  0  0  0  0  0  0  0  0  0  0  0
  2  1  1  0
  3  2  1  0
  4  2  1  0
  5  3  1  0
  6  5  1  0
  7  5  2  0
  8  7  1  0
  9  8  1  0
 10  7  1  0
 11  6  1  0
 12  3  1  0
 12  9  1  0
 13  9  1  0
 14  8  1  0
 15 10  1  0
 15 11  1  0
 16 15  1  0
 17 16  1  0
 18  6  1  0
 18 11  1  0
 19  6  1  0
 19 17  1  0
 20 12  1  0
M  END
>  <ID>  (1) 
conformer_0

$$$$
