
     RDKit          3D

 21 25  0  0  0  0  0  0  0  0999 V2000
  -28.0001   36.1411  -44.0821 O   0  0  0  0  0  0  0  0  0  0  0  0
  -27.1001   35.4411  -44.8821 C   0  0  0  0  0  0  0  0  0  0  0  0
  -25.8001   34.9411  -44.3821 C   0  0  0  0  0  0  0  0  0  0  0  0
  -27.0001   35.8411  -46.2821 C   0  0  0  0  0  0  0  0  0  0  0  0
  -24.7001   35.2411  -45.2821 C   0  0  0  0  0  0  0  0  0  0  0  0
  -24.5001   35.8411  -46.5821 C   0  0  0  0  0  0  0  0  0  0  0  0
  -23.2001   36.0411  -47.0821 C   0  0  0  0  0  0  0  0  0  0  0  0
  -22.0001   35.6411  -46.3821 C   0  0  0  0  0  0  0  0  0  0  0  0
  -22.2001   34.5411  -45.3821 C   0  0  0  0  0  0  0  0  0  0  0  0
  -23.5001   34.3411  -44.8821 C   0  0  0  0  0  0  0  0  0  0  0  0
  -25.5001   33.8411  -43.4821 C   0  0  0  0  0  0  0  0  0  0  0  0
  -21.2001   33.4411  -45.1821 C   0  0  0  0  0  0  0  0  0  0  0  0
  -25.8001   36.2411  -47.0821 C   0  0  0  0  0  0  0  0  0  0  0  0
  -24.1001   33.4411  -43.7821 C   0  0  0  0  0  0  0  0  0  0  0  0
  -23.1001   36.7411  -48.3821 C   0  0  0  0  0  0  0  0  0  0  0  0
  -22.5001   36.8411  -45.8821 C   0  0  0  0  0  0  0  0  0  0  0  0
  -24.3001   32.1411  -44.3821 O   0  0  0  0  0  0  0  0  0  0  0  0
  -26.5001   33.0411  -43.0821 O   0  0  0  0  0  0  0  0  0  0  0  0
  -27.7001   32.6411  -43.5821 C   0  0  0  0  0  0  0  0  0  0  0  0
  -28.0001   31.2411  -43.4821 C   0  0  0  0  0  0  0  0  0  0  0  0
  -27.4001   31.7411  -44.6821 O   0  0  0  0  0  0  0  0  0  0  0  0
  2  1  1  0
  3  2  2  0
  4  2  1  0
  5  3  1  0
  6  5  2  0
  7  6  1  0
  8  7  1  0
  9  8  1  0
 10  5  1  0
 10  9  1  0
 11  3  1  0
 12  9  1  0
 13  4  2  0
 13  6  1  0
 14 10  1  0
 14 11  1  0
 15  7  1  0
 16  7  1  0
 16  8  1  0
 17 14  1  0
 18 11  1  0
 19 18  1  0
 20 19  1  0
 21 19  1  0
 21 20  1  0
M  END
>  <ID>  (1) 
conformer_0

$$$$
