
     RDKit          3D

  5  5  0  0  0  0  0  0  0  0999 V2000
  -24.5991   35.9877  -46.6061 C   0  0  0  0  0  0  0  0  0  0  0  0
  -23.2991   35.5877  -46.0061 C   0  0  0  0  0  0  0  0  0  0  0  0
  -24.3991   36.6877  -47.9061 C   0  0  0  0  0  0  0  0  0  0  0  0
  -22.0991   35.9877  -46.8061 C   0  0  0  0  0  0  0  0  0  0  0  0
  -22.6991   36.7877  -47.9061 C   0  0  0  0  0  0  0  0  0  0  0  0
  2  1  2  0
  3  1  1  0
  4  2  1  0
  5  3  1  0
  5  4  2  0
M  END
>  <ID>  (1) 
conformer_0

$$$$
