
     RDKit          3D

  6  5  0  0  0  0  0  0  0  0999 V2000
  -23.5633   35.3097  -45.7078 C   0  0  0  0  0  0  0  0  0  0  0  0
  -24.3633   36.0097  -46.7078 C   0  0  0  0  0  0  0  0  0  0  0  0
  -23.5633   36.6097  -47.8078 C   0  0  0  0  0  0  0  0  0  0  0  0
  -22.1633   35.3097  -46.1078 C   0  0  0  0  0  0  0  0  0  0  0  0
  -21.1633   34.6097  -45.4078 C   0  0  0  0  0  0  0  0  0  0  0  0
  -22.5633   37.6097  -47.3078 C   0  0  0  0  0  0  0  0  0  0  0  0
  2  1  1  0
  3  2  1  0
  4  1  1  0
  5  4  1  0
  6  3  1  0
M  END
>  <ID>  (1) 
conformer_0

$$$$
