
     RDKit          3D

  8  7  0  0  0  0  0  0  0  0999 V2000
  -23.4689   35.3238  -45.2544 C   0  0  0  0  0  0  0  0  0  0  0  0
  -24.3689   35.7238  -46.2544 C   0  0  0  0  0  0  0  0  0  0  0  0
  -24.0689   36.4238  -47.4544 C   0  0  0  0  0  0  0  0  0  0  0  0
  -23.4689   34.0238  -44.5544 C   0  0  0  0  0  0  0  0  0  0  0  0
  -24.6689   33.2238  -44.4544 C   0  0  0  0  0  0  0  0  0  0  0  0
  -22.6689   36.6238  -47.8544 C   0  0  0  0  0  0  0  0  0  0  0  0
  -24.6689   32.0238  -43.6544 C   0  0  0  0  0  0  0  0  0  0  0  0
  -25.8689   31.5238  -42.9544 C   0  0  0  0  0  0  0  0  0  0  0  0
  2  1  1  0
  3  2  2  3
  4  1  1  0
  5  4  2  3
  6  3  1  0
  7  5  1  0
  8  7  1  0
M  END
>  <ID>  (1) 
conformer_0

$$$$
