
     RDKit          3D

 18 19  0  0  0  0  0  0  0  0999 V2000
  -27.5930   35.9160  -43.9947 O   0  0  0  0  0  0  0  0  0  0  0  0
  -26.8930   35.3160  -44.8947 C   0  0  0  0  0  0  0  0  0  0  0  0
  -26.8930   33.9160  -45.2947 N   0  0  0  0  0  0  0  0  0  0  0  0
  -25.9930   36.0160  -45.7947 C   0  0  0  0  0  0  0  0  0  0  0  0
  -24.7930   35.2160  -45.9947 C   0  0  0  0  0  0  0  0  0  0  0  0
  -24.4930   34.3160  -44.8947 C   0  0  0  0  0  0  0  0  0  0  0  0
  -23.6930   35.9160  -46.6947 C   0  0  0  0  0  0  0  0  0  0  0  0
  -22.3930   35.5160  -46.0947 C   0  0  0  0  0  0  0  0  0  0  0  0
  -23.2930   33.8160  -44.4947 C   0  0  0  0  0  0  0  0  0  0  0  0
  -24.2930   37.0160  -47.3947 C   0  0  0  0  0  0  0  0  0  0  0  0
  -22.0930   34.4160  -45.1947 C   0  0  0  0  0  0  0  0  0  0  0  0
  -25.6930   33.2160  -44.8947 C   0  0  0  0  0  0  0  0  0  0  0  0
  -25.4930   32.1160  -44.4947 O   0  0  0  0  0  0  0  0  0  0  0  0
  -24.0930   37.4160  -48.7947 C   0  0  0  0  0  0  0  0  0  0  0  0
  -22.8930   37.5160  -49.4947 C   0  0  0  0  0  0  0  0  0  0  0  0
  -22.8930   37.3160  -50.6947 O   0  0  0  0  0  0  0  0  0  0  0  0
  -22.4930   37.2160  -48.4947 N   0  0  0  0  0  0  0  0  0  0  0  0
  -26.7930   36.3160  -46.9947 C   0  0  0  0  0  0  0  0  0  0  0  0
  2  1  2  0
  3  2  1  0
  4  2  1  0
  5  4  1  0
  6  5  2  0
  7  5  1  0
  8  7  2  0
  9  6  1  0
 10  7  1  0
 11  8  1  0
 11  9  2  0
 12  3  1  0
 12  6  1  0
 13 12  2  0
 14 10  1  0
 15 14  1  0
 16 15  2  0
 17 15  1  0
 18  4  1  0
M  END
>  <ID>  (1) 
conformer_0

$$$$
