
     RDKit          3D

 18 20  0  0  0  0  0  0  0  0999 V2000
  -27.5930   35.9160  -43.9947 O   0  0  0  0  0  0  0  0  0  0  0  0
  -26.8930   35.3160  -44.8947 C   0  0  0  0  0  0  0  0  0  0  0  0
  -26.8930   33.9160  -45.2947 N   0  0  0  0  0  0  0  0  0  0  0  0
  -25.4930   35.7160  -44.9947 C   0  0  0  0  0  0  0  0  0  0  0  0
  -24.4930   34.7160  -44.9947 C   0  0  0  0  0  0  0  0  0  0  0  0
  -23.1930   34.9160  -45.6947 C   0  0  0  0  0  0  0  0  0  0  0  0
  -23.3930   36.0160  -46.5947 C   0  0  0  0  0  0  0  0  0  0  0  0
  -24.6930   36.2160  -47.1947 C   0  0  0  0  0  0  0  0  0  0  0  0
  -24.6930   33.5160  -44.2947 C   0  0  0  0  0  0  0  0  0  0  0  0
  -21.8930   34.3160  -45.3947 C   0  0  0  0  0  0  0  0  0  0  0  0
  -23.9930   37.1160  -46.0947 C   0  0  0  0  0  0  0  0  0  0  0  0
  -24.8930   36.9160  -48.3947 C   0  0  0  0  0  0  0  0  0  0  0  0
  -26.0930   33.0160  -44.4947 C   0  0  0  0  0  0  0  0  0  0  0  0
  -26.5930   31.6160  -44.2947 C   0  0  0  0  0  0  0  0  0  0  0  0
  -26.4930   36.3160  -45.7947 C   0  0  0  0  0  0  0  0  0  0  0  0
  -27.9930   31.7160  -44.3947 O   0  0  0  0  0  0  0  0  0  0  0  0
  -26.1930   31.1160  -42.9947 C   0  0  0  0  0  0  0  0  0  0  0  0
  -23.9930   38.3160  -46.1947 O   0  0  0  0  0  0  0  0  0  0  0  0
  2  1  1  0
  3  2  1  0
  4  2  1  0
  5  4  1  0
  6  5  1  0
  7  6  1  0
  8  7  1  0
  9  5  1  0
 10  6  1  0
 11  7  1  0
 11  8  1  0
 12  8  1  0
 13  3  1  0
 13  9  1  0
 14 13  1  0
 15  2  1  0
 15  4  1  0
 16 14  1  0
 17 14  1  0
 18 11  1  0
M  END
>  <ID>  (1) 
conformer_0

$$$$
