
     RDKit          3D

  9  8  0  0  0  0  0  0  0  0999 V2000
  -23.9523   35.2993  -45.6147 C   0  0  0  0  0  0  0  0  0  0  0  0
  -24.2523   35.9993  -46.8147 C   0  0  0  0  0  0  0  0  0  0  0  0
  -23.1523   36.4993  -47.5147 C   0  0  0  0  0  0  0  0  0  0  0  0
  -22.5523   34.8993  -45.5147 C   0  0  0  0  0  0  0  0  0  0  0  0
  -22.1523   33.8993  -44.5147 C   0  0  0  0  0  0  0  0  0  0  0  0
  -21.0523   32.9993  -44.9147 C   0  0  0  0  0  0  0  0  0  0  0  0
  -23.3523   37.2993  -48.7147 C   0  0  0  0  0  0  0  0  0  0  0  0
  -22.1523   37.2993  -49.6147 C   0  0  0  0  0  0  0  0  0  0  0  0
  -21.2523   31.5993  -45.2147 C   0  0  0  0  0  0  0  0  0  0  0  0
  2  1  1  0
  3  2  2  3
  4  1  1  0
  5  4  1  0
  6  5  1  0
  7  3  1  0
  8  7  1  0
  9  6  1  0
M  END
>  <ID>  (1) 
conformer_0

$$$$
