
     RDKit          3D

 19 22  0  0  0  0  0  0  0  0999 V2000
  -27.5930   35.9160  -43.9947 O   0  0  0  0  0  0  0  0  0  0  0  0
  -26.8930   35.3160  -44.8947 C   0  0  0  0  0  0  0  0  0  0  0  0
  -26.8930   33.9160  -45.2947 N   0  0  0  0  0  0  0  0  0  0  0  0
  -25.9930   36.0160  -45.7947 C   0  0  0  0  0  0  0  0  0  0  0  0
  -24.7930   35.2160  -45.9947 C   0  0  0  0  0  0  0  0  0  0  0  0
  -24.4930   34.4160  -44.8947 C   0  0  0  0  0  0  0  0  0  0  0  0
  -23.5930   35.7160  -46.6947 C   0  0  0  0  0  0  0  0  0  0  0  0
  -22.2930   35.4160  -46.0947 C   0  0  0  0  0  0  0  0  0  0  0  0
  -23.2930   33.6160  -44.5947 C   0  0  0  0  0  0  0  0  0  0  0  0
  -23.8930   36.6160  -47.7947 C   0  0  0  0  0  0  0  0  0  0  0  0
  -22.0930   34.3160  -45.1947 C   0  0  0  0  0  0  0  0  0  0  0  0
  -25.2930   36.8160  -47.9947 C   0  0  0  0  0  0  0  0  0  0  0  0
  -25.6930   33.3160  -44.6947 C   0  0  0  0  0  0  0  0  0  0  0  0
  -25.5930   31.9160  -44.6947 C   0  0  0  0  0  0  0  0  0  0  0  0
  -26.3930   36.3160  -47.1947 C   0  0  0  0  0  0  0  0  0  0  0  0
  -26.6930   31.3160  -44.1947 C   0  0  0  0  0  0  0  0  0  0  0  0
  -27.8930   32.0160  -43.6947 C   0  0  0  0  0  0  0  0  0  0  0  0
  -21.3930   36.3160  -46.0947 O   0  0  0  0  0  0  0  0  0  0  0  0
  -27.8930   31.7160  -44.8947 O   0  0  0  0  0  0  0  0  0  0  0  0
  2  1  2  0
  3  2  1  0
  4  2  1  0
  5  4  1  0
  6  5  1  0
  7  5  1  0
  8  7  1  0
  9  6  1  0
 10  7  1  0
 11  8  1  0
 11  9  1  0
 12 10  1  0
 13  3  1  0
 13  6  1  0
 14 13  1  0
 15  4  1  0
 15 12  1  0
 16 14  1  0
 17 16  1  0
 18  8  2  0
 19 16  1  0
 19 17  1  0
M  END
>  <ID>  (1) 
conformer_0

$$$$
