
     RDKit          3D

 10  9  0  0  0  0  0  0  0  0999 V2000
  -23.6429   34.2404  -44.8071 C   0  0  0  0  0  0  0  0  0  0  0  0
  -23.6429   35.4404  -45.7071 C   0  0  0  0  0  0  0  0  0  0  0  0
  -24.8429   35.9404  -46.3071 C   0  0  0  0  0  0  0  0  0  0  0  0
  -24.6429   36.6404  -47.6071 C   0  0  0  0  0  0  0  0  0  0  0  0
  -23.2429   36.7404  -47.8071 C   0  0  0  0  0  0  0  0  0  0  0  0
  -22.3429   33.7404  -44.4071 C   0  0  0  0  0  0  0  0  0  0  0  0
  -21.1429   33.9404  -45.1071 C   0  0  0  0  0  0  0  0  0  0  0  0
  -22.7429   37.4404  -48.9071 C   0  0  0  0  0  0  0  0  0  0  0  0
  -22.1429   37.0404  -50.1071 C   0  0  0  0  0  0  0  0  0  0  0  0
  -22.1429   32.9404  -43.2071 C   0  0  0  0  0  0  0  0  0  0  0  0
  2  1  2  3
  3  2  1  0
  4  3  1  0
  5  4  1  0
  6  1  1  0
  7  6  1  0
  8  5  1  0
  9  8  1  0
 10  6  1  0
M  END
>  <ID>  (1) 
conformer_0

$$$$
