
     RDKit          3D

 16 17  0  0  0  0  0  0  0  0999 V2000
  -27.5930   35.9160  -43.9947 O   0  0  0  0  0  0  0  0  0  0  0  0
  -26.8930   35.3160  -44.8947 C   0  0  0  0  0  0  0  0  0  0  0  0
  -26.8930   33.9160  -45.2947 N   0  0  0  0  0  0  0  0  0  0  0  0
  -25.9930   36.0160  -45.7947 C   0  0  0  0  0  0  0  0  0  0  0  0
  -24.7930   35.2160  -45.9947 C   0  0  0  0  0  0  0  0  0  0  0  0
  -24.4930   34.4160  -44.8947 C   0  0  0  0  0  0  0  0  0  0  0  0
  -23.6930   35.8160  -46.6947 C   0  0  0  0  0  0  0  0  0  0  0  0
  -22.3930   35.4160  -46.1947 C   0  0  0  0  0  0  0  0  0  0  0  0
  -23.1930   33.7160  -44.6947 C   0  0  0  0  0  0  0  0  0  0  0  0
  -23.8930   36.6160  -47.8947 C   0  0  0  0  0  0  0  0  0  0  0  0
  -21.9930   34.4160  -45.1947 C   0  0  0  0  0  0  0  0  0  0  0  0
  -25.5930   33.3160  -44.9947 C   0  0  0  0  0  0  0  0  0  0  0  0
  -22.6930   37.3160  -48.3947 C   0  0  0  0  0  0  0  0  0  0  0  0
  -25.0930   36.8160  -48.3947 O   0  0  0  0  0  0  0  0  0  0  0  0
  -22.6930   37.2160  -49.7947 O   0  0  0  0  0  0  0  0  0  0  0  0
  -21.9930   37.9160  -47.4947 O   0  0  0  0  0  0  0  0  0  0  0  0
  2  1  2  0
  3  2  1  0
  4  2  1  0
  5  4  1  0
  6  5  1  0
  7  5  1  0
  8  7  2  0
  9  6  1  0
 10  7  1  0
 11  8  1  0
 11  9  1  0
 12  3  1  0
 12  6  1  0
 13 10  1  0
 14 10  1  0
 15 13  2  0
 16 13  1  0
M  END
>  <ID>  (1) 
conformer_0

$$$$
