
     RDKit          3D

 21 25  0  0  0  0  0  0  0  0999 V2000
  -27.5930   35.9160  -43.9947 O   0  0  0  0  0  0  0  0  0  0  0  0
  -26.8930   35.3160  -44.8947 C   0  0  0  0  0  0  0  0  0  0  0  0
  -26.9930   34.0160  -45.2947 N   0  0  0  0  0  0  0  0  0  0  0  0
  -25.4930   35.8160  -44.9947 C   0  0  0  0  0  0  0  0  0  0  0  0
  -24.4930   34.8160  -44.6947 C   0  0  0  0  0  0  0  0  0  0  0  0
  -24.8930   33.5160  -44.3947 C   0  0  0  0  0  0  0  0  0  0  0  0
  -23.1930   34.9160  -45.3947 C   0  0  0  0  0  0  0  0  0  0  0  0
  -23.2930   35.7160  -46.5947 C   0  0  0  0  0  0  0  0  0  0  0  0
  -23.7930   32.6160  -44.3947 C   0  0  0  0  0  0  0  0  0  0  0  0
  -21.9930   34.3160  -44.7947 C   0  0  0  0  0  0  0  0  0  0  0  0
  -22.3930   33.0160  -44.0947 C   0  0  0  0  0  0  0  0  0  0  0  0
  -26.2930   33.2160  -44.2947 C   0  0  0  0  0  0  0  0  0  0  0  0
  -24.4930   36.1160  -47.1947 C   0  0  0  0  0  0  0  0  0  0  0  0
  -26.5930   31.8160  -44.0947 C   0  0  0  0  0  0  0  0  0  0  0  0
  -25.2930   36.8160  -45.9947 C   0  0  0  0  0  0  0  0  0  0  0  0
  -24.1930   31.4160  -43.5947 C   0  0  0  0  0  0  0  0  0  0  0  0
  -25.5930   31.3160  -43.0947 C   0  0  0  0  0  0  0  0  0  0  0  0
  -22.0930   36.0160  -47.2947 N   0  0  0  0  0  0  0  0  0  0  0  0
  -22.4930   36.8160  -48.3947 C   0  0  0  0  0  0  0  0  0  0  0  0
  -23.8930   37.1160  -48.0947 N   0  0  0  0  0  0  0  0  0  0  0  0
  -21.8930   37.1160  -49.6947 C   0  0  0  0  0  0  0  0  0  0  0  0
  2  1  2  0
  3  2  1  0
  4  2  1  0
  5  4  1  0
  6  5  1  0
  7  5  1  0
  8  7  2  0
  9  6  1  0
 10  7  1  0
 11  9  1  0
 11 10  1  0
 12  3  1  0
 12  6  1  0
 13  8  1  0
 14 12  1  0
 15  4  1  0
 15 13  1  0
 16  9  1  0
 17 14  1  0
 17 16  1  0
 18  8  1  0
 19 18  2  0
 20 13  1  0
 20 19  1  0
 21 19  1  0
M  END
>  <ID>  (1) 
conformer_0

$$$$
