
     RDKit          3D

 20 23  0  0  0  0  0  0  0  0999 V2000
  -27.5930   35.9160  -43.9947 O   0  0  0  0  0  0  0  0  0  0  0  0
  -26.8930   35.3160  -44.8947 C   0  0  0  0  0  0  0  0  0  0  0  0
  -26.8930   33.9160  -45.2947 N   0  0  0  0  0  0  0  0  0  0  0  0
  -25.4930   35.7160  -44.9947 C   0  0  0  0  0  0  0  0  0  0  0  0
  -24.4930   34.7160  -44.9947 C   0  0  0  0  0  0  0  0  0  0  0  0
  -24.6930   33.5160  -44.3947 C   0  0  0  0  0  0  0  0  0  0  0  0
  -23.1930   35.0160  -45.5947 C   0  0  0  0  0  0  0  0  0  0  0  0
  -23.3930   36.1160  -46.5947 C   0  0  0  0  0  0  0  0  0  0  0  0
  -24.6930   36.2160  -47.1947 C   0  0  0  0  0  0  0  0  0  0  0  0
  -26.1930   33.1160  -44.4947 C   0  0  0  0  0  0  0  0  0  0  0  0
  -22.0930   34.3160  -45.1947 C   0  0  0  0  0  0  0  0  0  0  0  0
  -26.3930   31.7160  -44.3947 C   0  0  0  0  0  0  0  0  0  0  0  0
  -22.2930   36.3160  -47.5947 C   0  0  0  0  0  0  0  0  0  0  0  0
  -23.5930   32.7160  -43.8947 C   0  0  0  0  0  0  0  0  0  0  0  0
  -22.2930   33.4160  -44.0947 C   0  0  0  0  0  0  0  0  0  0  0  0
  -24.1930   37.2160  -46.1947 C   0  0  0  0  0  0  0  0  0  0  0  0
  -26.4930   36.3160  -45.8947 C   0  0  0  0  0  0  0  0  0  0  0  0
  -21.2930   32.3160  -44.0947 O   0  0  0  0  0  0  0  0  0  0  0  0
  -21.8930   31.0160  -44.1947 C   0  0  0  0  0  0  0  0  0  0  0  0
  -27.7930   31.4160  -44.4947 O   0  0  0  0  0  0  0  0  0  0  0  0
  2  1  1  0
  3  2  1  0
  4  2  1  0
  5  4  1  0
  6  5  1  0
  7  5  1  0
  8  7  1  0
  9  8  1  0
 10  3  1  0
 10  6  1  0
 11  7  2  0
 12 10  1  0
 13  8  1  0
 14  6  1  0
 15 11  1  0
 15 14  1  0
 16  8  1  0
 16  9  1  0
 17  2  1  0
 17  4  1  0
 18 15  1  0
 19 18  1  0
 20 12  1  0
M  END
>  <ID>  (1) 
conformer_0

$$$$
