
     RDKit          3D

 19 21  0  0  0  0  0  0  0  0999 V2000
  -27.5930   35.9160  -43.9947 O   0  0  0  0  0  0  0  0  0  0  0  0
  -26.8930   35.3160  -44.8947 C   0  0  0  0  0  0  0  0  0  0  0  0
  -26.8930   33.9160  -45.2947 N   0  0  0  0  0  0  0  0  0  0  0  0
  -25.4930   35.7160  -44.9947 C   0  0  0  0  0  0  0  0  0  0  0  0
  -24.4930   34.7160  -44.9947 C   0  0  0  0  0  0  0  0  0  0  0  0
  -23.1930   34.9160  -45.6947 C   0  0  0  0  0  0  0  0  0  0  0  0
  -23.4930   35.9160  -46.6947 C   0  0  0  0  0  0  0  0  0  0  0  0
  -24.7930   36.3160  -47.2947 C   0  0  0  0  0  0  0  0  0  0  0  0
  -24.6930   33.5160  -44.1947 C   0  0  0  0  0  0  0  0  0  0  0  0
  -21.8930   34.6160  -45.0947 C   0  0  0  0  0  0  0  0  0  0  0  0
  -26.0930   33.1160  -44.4947 C   0  0  0  0  0  0  0  0  0  0  0  0
  -26.4930   31.7160  -44.2947 C   0  0  0  0  0  0  0  0  0  0  0  0
  -22.3930   36.3160  -47.5947 C   0  0  0  0  0  0  0  0  0  0  0  0
  -24.1930   37.2160  -46.2947 C   0  0  0  0  0  0  0  0  0  0  0  0
  -26.4930   36.1160  -45.9947 C   0  0  0  0  0  0  0  0  0  0  0  0
  -27.8930   31.5160  -44.3947 O   0  0  0  0  0  0  0  0  0  0  0  0
  -25.7930   30.9160  -43.2947 C   0  0  0  0  0  0  0  0  0  0  0  0
  -21.8930   33.2160  -44.5947 O   0  0  0  0  0  0  0  0  0  0  0  0
  -21.0930   32.1160  -44.9947 C   0  0  0  0  0  0  0  0  0  0  0  0
  2  1  1  0
  3  2  1  0
  4  2  1  0
  5  4  1  0
  6  5  1  0
  7  6  1  0
  8  7  1  0
  9  5  1  0
 10  6  1  0
 11  3  1  0
 11  9  1  0
 12 11  1  0
 13  7  1  0
 14  7  1  0
 14  8  1  0
 15  2  1  0
 15  4  1  0
 16 12  1  0
 17 12  1  0
 18 10  1  0
 19 18  1  0
M  END
>  <ID>  (1) 
conformer_0

$$$$
