
     RDKit          3D

 19 23  0  0  0  0  0  0  0  0999 V2000
  -27.5930   35.9160  -43.9947 O   0  0  0  0  0  0  0  0  0  0  0  0
  -26.8930   35.3160  -44.8947 C   0  0  0  0  0  0  0  0  0  0  0  0
  -26.8930   33.9160  -45.2947 N   0  0  0  0  0  0  0  0  0  0  0  0
  -25.9930   36.0160  -45.7947 C   0  0  0  0  0  0  0  0  0  0  0  0
  -24.7930   35.2160  -45.9947 C   0  0  0  0  0  0  0  0  0  0  0  0
  -24.4930   34.4160  -44.8947 C   0  0  0  0  0  0  0  0  0  0  0  0
  -23.6930   35.8160  -46.6947 C   0  0  0  0  0  0  0  0  0  0  0  0
  -22.3930   35.4160  -46.1947 C   0  0  0  0  0  0  0  0  0  0  0  0
  -23.2930   33.8160  -44.6947 C   0  0  0  0  0  0  0  0  0  0  0  0
  -23.9930   36.7160  -47.7947 C   0  0  0  0  0  0  0  0  0  0  0  0
  -22.0930   34.4160  -45.1947 C   0  0  0  0  0  0  0  0  0  0  0  0
  -26.6930   33.0160  -44.3947 C   0  0  0  0  0  0  0  0  0  0  0  0
  -25.7930   33.0160  -43.2947 C   0  0  0  0  0  0  0  0  0  0  0  0
  -25.3930   32.2160  -44.3947 C   0  0  0  0  0  0  0  0  0  0  0  0
  -26.3930   36.3160  -47.1947 C   0  0  0  0  0  0  0  0  0  0  0  0
  -25.3930   36.6160  -48.1947 C   0  0  0  0  0  0  0  0  0  0  0  0
  -24.2930   33.0160  -44.9947 N   0  0  0  0  0  0  0  0  0  0  0  0
  -25.5930   30.9160  -43.9947 O   0  0  0  0  0  0  0  0  0  0  0  0
  -21.4930   35.7160  -47.0947 O   0  0  0  0  0  0  0  0  0  0  0  0
  2  1  2  0
  3  2  1  0
  4  2  1  0
  5  4  1  0
  6  5  1  0
  7  5  1  0
  8  7  1  0
  9  6  1  0
 10  7  1  0
 11  8  1  0
 11  9  1  0
 12  3  1  0
 13 12  1  0
 14 12  1  0
 14 13  1  0
 15  4  1  0
 16 10  1  0
 16 15  2  0
 17  6  1  0
 17  9  1  0
 17 14  1  0
 18 14  1  0
 19  8  1  0
M  END
>  <ID>  (1) 
conformer_0

$$$$
