
     RDKit          3D

 15 18  0  0  0  0  0  0  0  0999 V2000
  -27.5669   35.8013  -43.8500 O   0  0  0  0  0  0  0  0  0  0  0  0
  -26.7669   35.3013  -44.7500 C   0  0  0  0  0  0  0  0  0  0  0  0
  -26.9669   34.1013  -45.3500 N   0  0  0  0  0  0  0  0  0  0  0  0
  -25.3669   35.8013  -44.7500 C   0  0  0  0  0  0  0  0  0  0  0  0
  -24.3669   34.8013  -45.2500 C   0  0  0  0  0  0  0  0  0  0  0  0
  -24.6669   33.6013  -44.5500 C   0  0  0  0  0  0  0  0  0  0  0  0
  -25.5669   33.6013  -43.4500 C   0  0  0  0  0  0  0  0  0  0  0  0
  -22.9669   35.2013  -45.4500 C   0  0  0  0  0  0  0  0  0  0  0  0
  -23.5669   32.6013  -44.4500 C   0  0  0  0  0  0  0  0  0  0  0  0
  -22.1669   33.0013  -44.4500 C   0  0  0  0  0  0  0  0  0  0  0  0
  -21.8669   34.3013  -45.1500 C   0  0  0  0  0  0  0  0  0  0  0  0
  -25.1669   35.6013  -46.1500 C   0  0  0  0  0  0  0  0  0  0  0  0
  -26.0669   33.2013  -44.6500 C   0  0  0  0  0  0  0  0  0  0  0  0
  -21.4669   31.9013  -45.1500 O   0  0  0  0  0  0  0  0  0  0  0  0
  -21.8669   30.5013  -44.9500 C   0  0  0  0  0  0  0  0  0  0  0  0
  2  1  2  0
  3  2  1  0
  4  2  1  0
  5  4  1  0
  6  5  1  0
  7  6  1  0
  8  5  1  0
  9  6  1  0
 10  9  1  0
 11  8  2  0
 11 10  1  0
 12  4  1  0
 12  5  1  0
 13  3  1  0
 13  6  1  0
 13  7  1  0
 14 10  1  0
 15 14  1  0
M  END
>  <ID>  (1) 
conformer_0

$$$$
