
     RDKit          3D

 18 22  0  0  0  0  0  0  0  0999 V2000
  -24.3152   35.6156  -46.2380 C   0  0  0  0  0  0  0  0  0  0  0  0
  -23.2152   35.9156  -47.0380 C   0  0  0  0  0  0  0  0  0  0  0  0
  -24.2152   34.6156  -45.1380 C   0  0  0  0  0  0  0  0  0  0  0  0
  -22.9152   34.1156  -44.8380 C   0  0  0  0  0  0  0  0  0  0  0  0
  -21.7152   34.3156  -45.6380 C   0  0  0  0  0  0  0  0  0  0  0  0
  -21.9152   35.4156  -46.6380 C   0  0  0  0  0  0  0  0  0  0  0  0
  -25.4152   33.9156  -44.7380 C   0  0  0  0  0  0  0  0  0  0  0  0
  -23.1152   37.0156  -48.0380 C   0  0  0  0  0  0  0  0  0  0  0  0
  -25.7152   35.9156  -46.6380 C   0  0  0  0  0  0  0  0  0  0  0  0
  -25.5152   32.6156  -44.3380 C   0  0  0  0  0  0  0  0  0  0  0  0
  -23.0152   32.8156  -44.1380 C   0  0  0  0  0  0  0  0  0  0  0  0
  -26.6152   34.7156  -44.6380 C   0  0  0  0  0  0  0  0  0  0  0  0
  -26.7152   35.9156  -45.5380 C   0  0  0  0  0  0  0  0  0  0  0  0
  -24.2152   31.9156  -44.1380 C   0  0  0  0  0  0  0  0  0  0  0  0
  -27.6152   34.7156  -43.5380 C   0  0  0  0  0  0  0  0  0  0  0  0
  -27.6152   33.6156  -44.6380 N   0  0  0  0  0  0  0  0  0  0  0  0
  -22.1152   37.7156  -47.7380 O   0  0  0  0  0  0  0  0  0  0  0  0
  -22.0152   36.8156  -48.8380 C   0  0  0  0  0  0  0  0  0  0  0  0
  2  1  1  0
  3  1  1  0
  4  3  1  0
  5  4  1  0
  6  2  1  0
  6  5  1  0
  7  3  1  0
  8  2  1  0
  9  1  1  0
 10  7  2  0
 11  4  1  0
 12  7  1  0
 13  9  1  0
 13 12  1  0
 14 10  1  0
 14 11  1  0
 15 12  1  0
 16 12  1  0
 16 15  1  0
 17  8  1  0
 18  8  1  0
 18 17  1  0
M  END
>  <ID>  (1) 
conformer_0

$$$$
