
     RDKit          3D

 19 22  0  0  0  0  0  0  0  0999 V2000
  -27.5669   35.8013  -43.8500 O   0  0  0  0  0  0  0  0  0  0  0  0
  -26.7669   35.3013  -44.7500 C   0  0  0  0  0  0  0  0  0  0  0  0
  -26.9669   34.1013  -45.3500 N   0  0  0  0  0  0  0  0  0  0  0  0
  -25.3669   35.8013  -44.7500 C   0  0  0  0  0  0  0  0  0  0  0  0
  -24.4669   34.7013  -45.1500 C   0  0  0  0  0  0  0  0  0  0  0  0
  -24.7669   33.4013  -44.5500 C   0  0  0  0  0  0  0  0  0  0  0  0
  -23.1669   35.1013  -45.6500 C   0  0  0  0  0  0  0  0  0  0  0  0
  -23.3669   35.8013  -46.9500 C   0  0  0  0  0  0  0  0  0  0  0  0
  -25.5669   33.5013  -43.3500 C   0  0  0  0  0  0  0  0  0  0  0  0
  -24.6669   36.4013  -47.0500 C   0  0  0  0  0  0  0  0  0  0  0  0
  -21.9669   34.6013  -45.2500 C   0  0  0  0  0  0  0  0  0  0  0  0
  -25.1669   36.9013  -45.7500 C   0  0  0  0  0  0  0  0  0  0  0  0
  -23.5669   32.6013  -44.1500 C   0  0  0  0  0  0  0  0  0  0  0  0
  -22.3669   33.3013  -44.4500 C   0  0  0  0  0  0  0  0  0  0  0  0
  -26.0669   33.2013  -44.6500 C   0  0  0  0  0  0  0  0  0  0  0  0
  -26.5669   31.8013  -44.5500 C   0  0  0  0  0  0  0  0  0  0  0  0
  -27.9669   31.9013  -44.2500 O   0  0  0  0  0  0  0  0  0  0  0  0
  -21.2669   32.7013  -43.8500 O   0  0  0  0  0  0  0  0  0  0  0  0
  -21.4669   31.3013  -43.6500 C   0  0  0  0  0  0  0  0  0  0  0  0
  2  1  2  0
  3  2  1  0
  4  2  1  0
  5  4  1  0
  6  5  1  0
  7  5  1  0
  8  7  1  0
  9  6  1  0
 10  8  1  0
 11  7  1  0
 12  4  1  0
 12 10  1  0
 13  6  1  0
 14 11  2  0
 14 13  1  0
 15  3  1  0
 15  6  1  0
 15  9  1  0
 16 15  1  0
 17 16  1  0
 18 14  1  0
 19 18  1  0
M  END
>  <ID>  (1) 
conformer_0

$$$$
