
     RDKit          3D

 23 24  0  0  0  0  0  0  0  0999 V2000
   36.6871   16.9278   36.5134 C   0  0  0  0  0  0  0  0  0  0  0  0
   30.4103   17.3611   37.5685 P   0  0  0  0  0  0  0  0  0  0  0  0
   38.9680   17.2163   35.2511 O   0  0  0  0  0  0  0  0  0  0  0  0
   33.2719   20.1566   35.9978 O   0  0  0  0  0  0  0  0  0  0  0  0
   32.5823   16.5113   36.0546 C   0  0  0  0  0  0  0  0  0  0  0  0
   37.9072   19.3480   35.5096 C   0  0  0  0  0  0  0  0  0  0  0  0
   38.1527   20.6207   35.8318 O   0  0  0  0  0  0  0  0  0  0  0  0
   33.4960   18.8027   35.8797 C   0  0  0  0  0  0  0  0  0  0  0  0
   31.5773   16.3056   38.3825 C   0  0  0  0  0  0  0  0  0  0  0  0
   37.6932   17.8002   37.3288 C   0  0  0  0  0  0  0  0  0  0  0  0
   32.9254   16.6877   37.6024 C   0  0  0  0  0  0  0  0  0  0  0  0
   29.4875   16.4524   36.7724 O   0  0  0  0  0  1  0  0  0  0  0  0
   34.6531   18.1863   36.5059 C   0  0  0  0  0  0  0  0  0  0  0  0
   31.2334   18.3613   36.7299 O   0  0  0  0  0  0  0  0  0  0  0  0
   32.2428   17.9933   35.6869 C   0  0  0  0  0  0  0  0  0  0  0  0
   36.6478   18.8481   34.9208 C   0  0  0  0  0  0  0  0  0  0  0  0
   34.3934   17.1003   37.5107 C   0  0  0  0  0  0  0  0  0  0  0  0
   29.5771   18.1830   38.5696 O   0  0  0  0  0  1  0  0  0  0  0  0
   31.5102   14.8325   38.0983 O   0  0  0  0  0  0  0  0  0  0  0  0
   35.8315   17.8189   35.6277 C   0  0  0  0  0  0  0  0  0  0  0  0
   38.7470   18.2636   36.1982 C   0  0  0  0  0  0  0  0  0  0  0  0
   39.9182   18.6509   36.7697 O   0  0  0  0  0  0  0  0  0  0  0  0
   35.9039   19.7461   34.1397 O   0  0  0  0  0  0  0  0  0  0  0  0
  1 10  1  0
  1 20  1  0
  2 12  1  0
  2 14  1  0
  2 18  1  0
  3 21  1  0
  4  8  1  0
  5 11  1  0
  5 15  1  0
  6  7  1  0
  6 16  1  0
  6 21  1  0
  8 13  1  0
  8 15  1  0
  9 11  1  0
  9 19  1  0
 10 21  1  0
 11 17  1  0
 13 17  1  0
 13 20  1  0
 14 15  1  0
 16 20  1  0
 16 23  1  0
 21 22  1  0
M  END
>  <ID>  (1) 
conformer_0

$$$$
