
     RDKit          3D

 21 22  0  0  0  0  0  0  0  0999 V2000
   38.3040   16.6716   34.3170 O   0  0  0  0  0  0  0  0  0  0  0  0
   35.9039   20.5887   34.0944 O   0  0  0  0  0  0  0  0  0  0  0  0
   40.0745   18.4314   36.4762 O   0  0  0  0  0  0  0  0  0  0  0  0
   35.5594   17.4605   36.1963 C   0  0  0  0  0  0  0  0  0  0  0  0
   36.0439   19.3180   34.7272 C   0  0  0  0  0  0  0  0  0  0  0  0
   37.6872   19.8788   36.3826 O   0  0  0  0  0  0  0  0  0  0  0  0
   38.3254   19.5770   34.0467 O   0  0  0  0  0  0  0  0  0  0  0  0
   31.2771   18.1949   36.1119 C   0  0  0  0  0  0  0  0  0  0  0  0
   35.1855   18.8698   35.9506 C   0  0  0  0  0  0  0  0  0  0  0  0
   32.7547   18.0717   35.8483 C   0  0  0  0  0  0  0  0  0  0  0  0
   30.7720   17.9710   37.2230 O   0  0  0  0  0  0  0  0  0  0  0  0
   33.2658   16.6356   36.0286 C   0  0  0  0  0  0  0  0  0  0  0  0
   34.5772   16.6111   36.8748 C   0  0  0  0  0  0  0  0  0  0  0  0
   39.0993   16.6496   37.3342 O   0  0  0  0  0  0  0  0  0  0  0  0
   38.0052   17.6067   35.3992 C   0  0  0  0  0  0  0  0  0  0  0  0
   36.8576   16.9477   36.0623 O   0  0  0  0  0  0  0  0  0  0  0  0
   33.7525   19.0404   36.5600 C   0  0  0  0  0  0  0  0  0  0  0  0
   39.1493   17.5625   36.4314 C   0  0  0  0  0  0  0  0  0  0  0  0
   30.6360   18.4196   35.0901 O   0  0  0  0  0  0  0  0  0  0  0  0
   33.3906   20.4425   36.0639 O   0  0  0  0  0  0  0  0  0  0  0  0
   37.5857   19.1238   35.1619 C   0  0  0  0  0  0  0  0  0  0  0  0
  1 15  1  0
  2  5  1  0
  3 18  2  0
  4  9  1  0
  4 13  1  0
  4 16  1  0
  5  9  1  0
  5 21  1  0
  6 21  1  0
  7 21  1  0
  8 10  1  0
  8 11  2  0
  8 19  1  0
  9 17  1  0
 10 12  1  0
 10 17  1  0
 12 13  1  0
 14 18  1  0
 15 16  1  0
 15 18  1  0
 15 21  1  0
 17 20  1  0
M  END
>  <ID>  (1) 
conformer_0

$$$$
