
     RDKit          3D

 11 10  0  0  0  0  0  0  0  0999 V2000
   34.0230   18.8670   36.0251 C   0  0  0  0  0  0  0  0  0  0  0  0
   31.7496   17.8943   35.4530 C   0  0  0  0  0  0  0  0  0  0  0  0
   35.4812   18.7583   35.5111 C   0  0  0  0  0  0  0  0  0  0  0  0
   39.0097   17.9844   36.2849 C   0  0  0  0  0  0  0  0  0  0  0  0
   36.6174   18.7973   36.4975 C   0  0  0  0  0  0  0  0  0  0  0  0
   35.7095   19.5498   34.3779 O   0  0  0  0  0  0  0  0  0  0  0  0
   31.2456   17.7506   36.9439 C   0  0  0  0  0  0  0  0  0  0  0  0
   38.4081   20.1980   35.7757 O   0  0  0  0  0  0  0  0  0  0  0  0
   33.2076   17.7920   35.4774 N   0  0  0  0  0  0  0  0  0  0  0  0
   33.5675   20.2158   35.9805 O   0  0  0  0  0  0  0  0  0  0  0  0
   38.0145   19.0138   35.9685 C   0  0  0  0  0  0  0  0  0  0  0  0
  1  3  1  0
  1  9  1  0
  1 10  1  0
  2  7  1  0
  2  9  1  0
  3  5  1  0
  3  6  1  0
  4 11  1  0
  5 11  1  0
  8 11  2  0
M  END
>  <ID>  (1) 
conformer_0

$$$$
