
     RDKit          3D

 16 17  0  0  0  0  0  0  0  0999 V2000
   35.5981   16.1360   36.9604 C   0  0  0  0  0  0  0  0  0  0  0  0
   33.6870   17.3841   35.9591 C   0  0  0  0  0  0  0  0  0  0  0  0
   37.9310   18.3518   34.2448 C   0  0  0  0  0  0  0  0  0  0  0  0
   31.3023   18.1399   35.1678 O   0  0  0  0  0  1  0  0  0  0  0  0
   38.0475   20.2443   35.8365 O   0  0  0  0  0  0  0  0  0  0  0  0
   35.8741   20.4509   34.0846 O   0  0  0  0  0  0  0  0  0  0  0  0
   32.9241   19.8726   36.0157 O   0  0  0  0  0  0  0  0  0  0  0  0
   35.8644   19.3917   35.0818 C   0  0  0  0  0  0  0  0  0  0  0  0
   36.2235   17.1616   36.0449 C   0  0  0  0  0  0  0  0  0  0  0  0
   37.4429   19.1247   35.4269 C   0  0  0  0  0  0  0  0  0  0  0  0
   35.0512   18.1171   35.5188 C   0  0  0  0  0  0  0  0  0  0  0  0
   32.3690   18.4535   36.2115 P   0  0  0  0  0  4  0  0  0  0  0  0
   38.3911   17.9863   37.4127 O   0  0  0  0  0  0  0  0  0  0  0  0
   34.1486   16.7288   37.3486 C   0  0  0  0  0  0  0  0  0  0  0  0
   31.6628   18.2712   37.5880 O   0  0  0  0  0  0  0  0  0  0  0  0
   37.2862   18.1165   36.6134 C   0  0  0  0  0  0  0  0  0  0  0  0
  1  9  1  0
  1 14  1  0
  2 11  1  0
  2 12  1  0
  2 14  1  0
  3 10  1  0
  4 12  2  0
  5 10  1  0
  6  8  1  0
  7 12  1  0
  8 10  1  0
  8 11  1  0
  9 11  1  0
  9 16  1  0
 10 16  1  0
 12 15  1  0
 13 16  1  0
M  END
>  <ID>  (1) 
conformer_0

$$$$
