
     RDKit          3D

 17 17  0  0  0  0  0  0  0  0999 V2000
   36.2541   17.4580   35.8980 C   0  0  0  0  0  0  0  0  0  0  0  0
   30.1861   17.9987   36.4257 O   0  0  0  0  0  0  0  0  0  0  0  0
   36.3227   18.3332   34.6655 C   0  0  0  0  0  0  0  0  0  0  0  0
   34.1357   19.6487   35.7969 O   0  0  0  0  0  0  0  0  0  0  0  0
   31.2910   17.8853   35.8816 C   0  0  0  0  0  0  0  0  0  0  0  0
   38.5036   20.6168   36.0822 O   0  0  0  0  0  0  0  0  0  0  0  0
   37.6130   19.0870   34.4208 C   0  0  0  0  0  0  0  0  0  0  0  0
   36.7607   16.0018   35.5661 C   0  0  0  0  0  0  0  0  0  0  0  0
   33.7481   18.2733   35.8359 C   0  0  0  0  0  0  0  0  0  0  0  0
   37.0967   17.9311   37.1030 C   0  0  0  0  0  0  0  0  0  0  0  0
   32.5175   18.0515   36.7641 C   0  0  0  0  0  0  0  0  0  0  0  0
   31.5373   17.8984   34.6275 O   0  0  0  0  0  0  0  0  0  0  0  0
   38.5484   19.3066   35.5779 C   0  0  0  0  0  0  0  0  0  0  0  0
   37.3564   20.2404   33.6463 O   0  0  0  0  0  0  0  0  0  0  0  0
   34.8072   17.3458   36.4131 C   0  0  0  0  0  0  0  0  0  0  0  0
   38.4945   18.2906   36.6331 C   0  0  0  0  0  0  0  0  0  0  0  0
   39.4911   18.0189   37.4731 O   0  0  0  0  0  0  0  0  0  0  0  0
  1  3  1  0
  1  8  1  0
  1 10  1  0
  1 15  1  0
  2  5  2  0
  3  7  1  0
  4  9  1  0
  5 11  1  0
  5 12  1  0
  6 13  1  0
  7 13  1  0
  7 14  1  0
  9 11  1  0
  9 15  1  0
 10 16  1  0
 13 16  1  0
 16 17  1  0
M  END
>  <ID>  (1) 
conformer_0

$$$$
