
     RDKit          3D

 16 16  0  0  0  0  0  0  0  0999 V2000
   34.9007   20.1293   35.5008 O   0  0  0  0  0  0  0  0  0  0  0  0
   31.0963   17.6520   37.0920 C   0  0  0  0  0  0  0  0  0  0  0  0
   34.7573   17.4173   37.4620 O   0  0  0  0  0  0  0  0  0  0  0  0
   30.1272   17.9039   37.7293 O   0  0  0  0  0  0  0  0  0  0  0  0
   32.5138   18.0971   37.2586 C   0  0  0  0  0  0  0  0  0  0  0  0
   38.3126   19.6448   35.8590 C   0  0  0  0  0  0  0  0  0  0  0  0
   37.6169   17.4060   35.3643 O   0  0  0  0  0  0  0  0  0  0  0  0
   33.3462   17.0106   37.9192 C   0  0  0  0  0  0  0  0  0  0  0  0
   34.7197   17.7952   36.0426 C   0  0  0  0  0  0  0  0  0  0  0  0
   32.1277   18.5521   34.9999 O   0  0  0  0  0  0  0  0  0  0  0  0
   37.1653   18.6637   35.7829 C   0  0  0  0  0  0  0  0  0  0  0  0
   39.5068   19.2325   35.9314 O   0  0  0  0  0  0  0  0  0  0  0  0
   35.0992   16.7258   35.2359 O   0  0  0  0  0  0  0  0  0  0  0  0
   35.6875   18.9905   35.8902 C   0  0  0  0  0  0  0  0  0  0  0  0
   33.2175   18.1376   35.8210 C   0  0  0  0  0  0  0  0  0  0  0  0
   38.0804   20.8914   35.8874 O   0  0  0  0  0  0  0  0  0  0  0  0
  1 14  1  0
  2  4  2  0
  2  5  1  0
  3  8  1  0
  3  9  1  0
  5  8  1  0
  5 15  1  0
  6 11  1  0
  6 12  2  0
  6 16  1  0
  7 11  1  0
  9 13  1  0
  9 14  1  0
  9 15  1  0
 10 15  1  0
 11 14  1  0
M  END
>  <ID>  (1) 
conformer_0

$$$$
