
     RDKit          3D

 31 32  0  0  0  0  0  0  0  0999 V2000
   37.5708   17.1159   36.0985 C   0  0  0  0  0  0  0  0  0  0  0  0
   32.2650   15.7709   34.6747 O   0  0  0  0  0  0  0  0  0  0  0  0
   37.8651   19.0920   35.1503 C   0  0  0  0  0  0  0  0  0  0  0  0
   36.8778   15.0523   35.1362 O   0  0  0  0  0  0  0  0  0  0  0  0
   36.4655   18.9606   34.7845 C   0  0  0  0  0  0  0  0  0  0  0  0
   40.4362   19.3496   35.7285 C   0  0  0  0  0  0  0  0  0  0  0  0
   31.5682   15.7297   38.5231 C   0  0  0  0  0  0  0  0  0  0  0  0
   36.4689   13.3981   37.8765 O   0  0  0  0  0  0  0  0  0  0  0  0
   35.1388   18.7773   35.5427 C   0  0  0  0  0  0  0  0  0  0  0  0
   38.6559   17.8580   35.3678 C   0  0  0  0  0  0  0  0  0  0  0  0
   36.6932   16.5030   34.9666 C   0  0  0  0  0  0  0  0  0  0  0  0
   33.8755   13.7667   38.6500 O   0  0  0  0  0  0  0  0  0  0  0  0
   37.1078   15.8115   38.2796 C   0  0  0  0  0  0  0  0  0  0  0  0
   34.5794   20.1491   35.6489 O   0  0  0  0  0  0  0  0  0  0  0  0
   38.3238   20.2026   35.9181 C   0  0  0  0  0  0  0  0  0  0  0  0
   36.1214   14.6882   38.1370 C   0  0  0  0  0  0  0  0  0  0  0  0
   33.1544   18.2982   36.8898 O   0  0  0  0  0  0  0  0  0  0  0  0
   33.9002   16.0225   37.7815 C   0  0  0  0  0  0  0  0  0  0  0  0
   40.5926   17.0490   36.5036 O   0  0  0  0  0  0  0  0  0  0  0  0
   33.8026   17.9119   35.6662 C   0  0  0  0  0  0  0  0  0  0  0  0
   32.2808   17.7702   35.9987 C   0  0  0  0  0  0  0  0  0  0  0  0
   31.9482   16.2313   36.0177 C   0  0  0  0  0  0  0  0  0  0  0  0
   37.9803   14.7795   36.1578 C   0  0  0  0  0  0  0  0  0  0  0  0
   34.6849   14.9251   38.5823 C   0  0  0  0  0  0  0  0  0  0  0  0
   37.6176   20.6159   36.9958 O   0  0  0  0  0  0  0  0  0  0  0  0
   31.1328   18.3925   35.7132 O   0  0  0  0  0  0  0  0  0  0  0  0
   38.0260   16.0479   37.0803 C   0  0  0  0  0  0  0  0  0  0  0  0
   37.8134   15.8798   39.6060 C   0  0  0  0  0  0  0  0  0  0  0  0
   32.4950   15.5889   37.3069 C   0  0  0  0  0  0  0  0  0  0  0  0
   39.9409   18.0811   36.0280 C   0  0  0  0  0  0  0  0  0  0  0  0
   36.2426   19.2914   33.4342 O   0  0  0  0  0  0  0  0  0  0  0  0
  1 10  1  0
  1 11  1  0
  1 27  1  0
  2 22  1  0
  3  5  1  0
  3 10  1  0
  3 15  1  0
  4 11  1  0
  4 23  1  0
  5  9  1  0
  5 31  1  0
  6 30  1  0
  7 29  1  0
  8 16  1  0
  9 14  1  0
  9 20  1  0
 10 30  1  0
 12 24  1  0
 13 16  1  0
 13 27  1  0
 13 28  1  0
 15 25  1  0
 16 24  1  0
 17 20  1  0
 17 21  1  0
 18 24  1  0
 18 29  1  0
 19 30  1  0
 21 22  1  0
 21 26  2  0
 22 29  1  0
 23 27  1  0
M  END
>  <ID>  (1) 
conformer_0

$$$$
