
     RDKit          3D

 23 25  0  0  0  0  0  0  0  0999 V2000
   30.5943   17.0437   38.0666 C   0  0  0  0  0  0  0  0  0  0  0  0
   38.1172   19.3530   35.7412 C   0  0  0  0  0  0  0  0  0  0  0  0
   35.5337   18.8475   35.9733 C   0  0  0  0  0  0  0  0  0  0  0  0
   32.5026   16.3006   39.1718 O   0  0  0  0  0  0  0  0  0  0  0  0
   36.2671   16.6990   37.3599 C   0  0  0  0  0  0  0  0  0  0  0  0
   39.5982   17.4299   35.5616 C   0  0  0  0  0  0  0  0  0  0  0  0
   38.8095   15.3090   36.2907 O   0  0  0  0  0  0  0  0  0  0  0  0
   29.1890   18.1067   36.4757 O   0  0  0  0  0  0  0  0  0  0  0  0
   31.6297   17.9578   36.2482 C   0  0  0  0  0  0  0  0  0  0  0  0
   32.6238   17.3732   37.0250 C   0  0  0  0  0  0  0  0  0  0  0  0
   36.8239   15.6192   38.0739 O   0  0  0  0  0  0  0  0  0  0  0  0
   30.3616   17.7611   36.8629 C   0  0  0  0  0  0  0  0  0  0  0  0
   31.9821   16.8291   38.1606 C   0  0  0  0  0  0  0  0  0  0  0  0
   35.1322   19.9548   35.1637 O   0  0  0  0  0  0  0  0  0  0  0  0
   31.8085   18.6248   35.1228 O   0  0  0  0  0  0  0  0  0  0  0  0
   37.1466   17.0414   36.1775 C   0  0  0  0  0  0  0  0  0  0  0  0
   33.9743   17.2449   36.7828 C   0  0  0  0  0  0  0  0  0  0  0  0
   34.8954   16.9683   37.8562 C   0  0  0  0  0  0  0  0  0  0  0  0
   36.9670   18.4784   35.7005 C   0  0  0  0  0  0  0  0  0  0  0  0
   38.0186   20.6421   35.8474 O   0  0  0  0  0  0  0  0  0  0  0  0
   34.7095   17.6946   35.6753 O   0  0  0  0  0  0  0  0  0  0  0  0
   38.6053   16.6838   36.4125 C   0  0  0  0  0  0  0  0  0  0  0  0
   39.3873   18.8757   35.5303 O   0  0  0  0  0  0  0  0  0  0  0  0
  1 12  1  0
  1 13  1  0
  2 19  1  0
  2 20  2  0
  2 23  1  0
  3 14  1  0
  3 19  1  0
  3 21  1  0
  4 13  2  0
  5 11  1  0
  5 16  1  0
  5 18  1  0
  6 22  1  0
  6 23  1  0
  7 22  1  0
  8 12  2  0
  9 10  2  0
  9 12  1  0
  9 15  1  0
 10 13  1  0
 10 17  1  0
 16 19  1  0
 16 22  1  0
 17 18  1  0
 17 21  1  0
M  END
>  <ID>  (1) 
conformer_0

$$$$
