
     RDKit          3D

 25 26  0  0  0  0  0  0  0  0999 V2000
   33.6562   18.7575   36.1254 C   0  0  0  0  0  0  0  0  0  0  0  0
   29.0693   17.6041   35.5640 O   0  0  0  0  0  0  0  0  0  0  0  0
   37.7260   17.1649   37.9532 C   0  0  0  0  0  0  0  0  0  0  0  0
   36.2648   18.2722   35.7370 C   0  0  0  0  0  0  0  0  0  0  0  0
   34.9350   18.0673   36.4614 C   0  0  0  0  0  0  0  0  0  0  0  0
   31.7907   14.5989   38.2419 O   0  0  0  0  0  0  0  0  0  0  0  0
   37.4815   17.8873   36.6350 C   0  0  0  0  0  0  0  0  0  0  0  0
   40.0260   16.6052   37.3873 O   0  0  0  0  0  0  0  0  0  0  0  0
   30.9883   14.8709   36.9809 C   0  0  0  0  0  0  0  0  0  0  0  0
   33.0281   13.8214   37.9363 C   0  0  0  0  0  0  0  0  0  0  0  0
   34.7860   16.8829   37.2674 O   0  0  0  0  0  0  0  0  0  0  0  0
   33.4194   20.0749   35.7981 O   0  0  0  0  0  0  0  0  0  0  0  0
   30.7855   16.4085   36.9769 C   0  0  0  0  0  0  0  0  0  0  0  0
   32.2969   16.8251   37.1311 O   0  0  0  0  0  0  0  0  0  0  0  0
   38.7812   17.9090   35.8144 C   0  0  0  0  0  0  0  0  0  0  0  0
   30.2444   17.2660   35.9198 C   0  0  0  0  0  0  0  0  0  0  0  0
   39.5453   18.4711   34.7241 O   0  0  0  0  0  0  0  0  0  0  0  0
   33.5308   16.3711   37.7965 C   0  0  0  0  0  0  0  0  0  0  0  0
   31.3072   18.1215   35.4289 O   0  0  0  0  0  0  0  0  0  0  0  0
   39.2290   17.2520   38.3529 C   0  0  0  0  0  0  0  0  0  0  0  0
   35.9348   19.8517   33.9878 O   0  0  0  0  0  0  0  0  0  0  0  0
   32.4516   17.8950   36.2089 C   0  0  0  0  0  0  0  0  0  0  0  0
   37.5480   20.3519   35.4639 O   0  0  0  0  0  0  0  0  0  0  0  0
   39.4172   16.5001   36.0232 C   0  0  0  0  0  0  0  0  0  0  0  0
   36.6671   19.5532   35.0177 C   0  0  0  0  0  0  0  0  0  0  0  0
  1  5  1  0
  1 12  1  0
  1 22  1  0
  2 16  2  0
  3  7  1  0
  3 20  1  0
  4  5  1  0
  4  7  1  0
  4 25  1  0
  5 11  1  0
  6  9  1  0
  6 10  1  0
  7 15  1  0
  8 20  1  0
  8 24  1  0
  9 13  1  0
 11 18  1  0
 13 16  1  0
 14 18  1  0
 14 22  1  0
 15 17  1  0
 15 24  1  0
 16 19  1  0
 19 22  1  0
 21 25  2  0
 23 25  1  0
M  END
>  <ID>  (1) 
conformer_0

$$$$
