
     RDKit          3D

 27 30  0  0  0  0  0  0  0  0999 V2000
   30.5645   16.6044   35.7195 C   0  0  0  0  0  0  0  0  0  0  0  0
   36.6282   19.5801   33.9405 O   0  0  0  0  0  0  0  0  0  0  0  0
   31.2142   16.6432   38.5505 C   0  0  0  0  0  0  0  0  0  0  0  0
   37.6474   19.6874   36.1118 C   0  0  0  0  0  0  0  0  0  0  0  0
   37.5833   17.2523   34.8232 O   0  0  0  0  0  0  0  0  0  0  0  0
   33.4312   15.8368   37.1865 C   0  0  0  0  0  0  0  0  0  0  0  0
   38.8064   17.9196   35.0274 C   0  0  0  0  0  0  0  0  0  0  0  0
   38.1989   20.9054   35.8921 O   0  0  0  0  0  0  0  0  0  0  0  0
   38.0381   16.7102   38.1684 C   0  0  0  0  0  0  0  0  0  0  0  0
   29.5300   17.1175   36.7937 C   0  0  0  0  0  0  0  0  0  0  0  0
   39.9573   17.0886   35.1695 O   0  0  0  0  0  0  0  0  0  0  0  0
   30.2696   17.7627   38.0300 C   0  0  0  0  0  0  0  0  0  0  0  0
   35.2487   17.1912   36.2949 C   0  0  0  0  0  0  0  0  0  0  0  0
   34.8556   16.0713   37.1024 C   0  0  0  0  0  0  0  0  0  0  0  0
   32.7883   17.2072   36.6702 C   0  0  0  0  0  0  0  0  0  0  0  0
   38.2665   17.8187   37.3855 O   0  0  0  0  0  0  0  0  0  0  0  0
   36.4053   17.7320   35.4551 C   0  0  0  0  0  0  0  0  0  0  0  0
   38.6916   18.6587   36.3463 C   0  0  0  0  0  0  0  0  0  0  0  0
   31.6482   17.6250   35.7675 C   0  0  0  0  0  0  0  0  0  0  0  0
   35.8256   15.4193   37.8624 C   0  0  0  0  0  0  0  0  0  0  0  0
   36.9589   15.8945   38.2901 C   0  0  0  0  0  0  0  0  0  0  0  0
   31.5935   18.6774   34.9859 O   0  0  0  0  0  0  0  0  0  0  0  0
   33.9807   19.2366   36.0219 O   0  0  0  0  0  0  0  0  0  0  0  0
   34.0489   17.9320   36.1392 C   0  0  0  0  0  0  0  0  0  0  0  0
   39.1233   16.4282   38.8079 O   0  0  0  0  0  0  0  0  0  0  0  0
   36.5234   19.2249   35.3096 C   0  0  0  0  0  0  0  0  0  0  0  0
   32.2233   16.1642   37.5877 O   0  0  0  0  0  0  0  0  0  0  0  0
  1 10  1  0
  1 19  1  0
  2 26  1  0
  3 12  1  0
  3 27  1  0
  4  8  1  0
  4 18  1  0
  4 26  1  0
  5  7  1  0
  5 17  1  0
  6 14  1  0
  6 15  1  0
  6 27  1  0
  7 11  1  0
  7 18  1  0
  9 16  1  0
  9 21  1  0
  9 25  2  0
 10 12  1  0
 13 14  1  0
 13 17  1  0
 13 24  1  0
 14 20  1  0
 15 19  1  0
 15 24  1  0
 16 18  1  0
 17 26  1  0
 19 22  1  0
 20 21  1  0
 23 24  1  0
M  END
>  <ID>  (1) 
conformer_0

$$$$
