
     RDKit          3D

 22 21  0  0  0  0  0  0  0  0999 V2000
   37.7959   15.9147   36.3939 O   0  0  0  0  0  0  0  0  0  0  0  0
   30.4321   16.9132   36.8600 C   0  0  0  0  0  0  0  0  0  0  0  0
   37.3654   18.3257   36.2275 C   0  0  0  0  0  0  0  0  0  0  0  0
   38.2428   20.8451   36.0941 O   0  0  0  0  0  0  0  0  0  0  0  0
   38.4613   19.4690   35.6284 P   0  0  0  0  0  0  0  0  0  0  0  0
   39.5929   17.5073   36.7989 C   0  0  0  0  0  0  0  0  0  0  0  0
   39.8255   18.8698   36.2768 O   0  0  0  0  0  0  0  0  0  0  0  0
   40.1173   17.2385   38.0865 N   0  0  0  0  0  0  0  0  0  0  0  0
   38.1602   17.1634   36.6166 C   0  0  0  0  0  0  0  0  0  0  0  0
   30.3255   15.6901   36.5789 O   0  0  0  0  0  0  0  0  0  0  0  0
   32.6887   16.7872   36.0517 C   0  0  0  0  0  0  0  0  0  0  0  0
   34.8967   17.1126   37.3422 O   0  0  0  0  0  0  0  0  0  0  0  0
   35.4488   19.0260   34.4719 O   0  0  0  0  0  0  0  0  0  0  0  0
   32.4884   18.2011   35.9021 C   0  0  0  0  0  0  0  0  0  0  0  0
   34.9005   18.2707   36.6662 C   0  0  0  0  0  0  0  0  0  0  0  0
   35.9730   18.3102   35.5749 C   0  0  0  0  0  0  0  0  0  0  0  0
   33.6633   20.3632   35.9816 O   0  0  0  0  0  0  0  0  0  0  0  0
   31.5116   18.7392   35.2341 O   0  0  0  0  0  0  0  0  0  0  0  0
   31.8619   17.3509   37.1401 C   0  0  0  0  0  0  0  0  0  0  0  0
   38.4558   19.3439   34.1002 O   0  0  0  0  0  0  0  0  0  0  0  0
   33.6278   19.0422   36.4486 C   0  0  0  0  0  0  0  0  0  0  0  0
   29.5234   17.7170   37.0876 O   0  0  0  0  0  0  0  0  0  0  0  0
  1  9  1  0
  2 10  2  0
  2 19  1  0
  2 22  1  0
  3  5  1  0
  3  9  1  0
  3 16  1  0
  4  5  1  0
  5 20  1  0
  6  7  1  0
  6  8  1  0
  6  9  1  0
 11 14  1  0
 11 19  1  0
 12 15  1  0
 13 16  1  0
 14 18  1  0
 14 21  1  0
 15 16  1  0
 15 21  1  0
 17 21  1  0
M  END
>  <ID>  (1) 
conformer_0

$$$$
