
     RDKit          3D

 23 23  0  0  0  0  0  0  0  0999 V2000
   38.7446   17.5800   38.9808 O   0  0  0  0  0  0  0  0  0  0  0  0
   38.7378   19.7252   36.2774 O   0  0  0  0  0  0  0  0  0  0  0  0
   35.8755   16.5511   35.2077 O   0  0  0  0  0  0  0  0  0  0  0  0
   37.9702   18.6796   36.2897 C   0  0  0  0  0  0  0  0  0  0  0  0
   31.4955   18.0463   37.3857 C   0  0  0  0  0  0  0  0  0  0  0  0
   40.0590   16.7552   36.2470 C   0  0  0  0  0  0  0  0  0  0  0  0
   36.6073   18.8093   35.5559 C   0  0  0  0  0  0  0  0  0  0  0  0
   41.0405   17.5646   36.9504 C   0  0  0  0  0  0  0  0  0  0  0  0
   35.2266   19.4871   35.3379 O   0  0  0  0  0  0  0  0  0  0  0  0
   37.1584   19.3482   34.0612 C   0  0  0  0  0  0  0  0  0  0  0  0
   37.8217   16.4475   37.0404 C   0  0  0  0  0  0  0  0  0  0  0  0
   38.6279   17.4062   36.2980 N   0  0  0  0  0  0  0  0  0  0  0  0
   37.7967   16.8476   38.4114 C   0  0  0  0  0  0  0  0  0  0  0  0
   30.2185   18.4566   37.5135 O   0  0  0  0  0  0  0  0  0  0  0  0
   37.1643   20.7782   34.0951 O   0  0  0  0  0  0  0  0  0  0  0  0
   37.8856   15.1816   36.6082 O   0  0  0  0  0  0  0  0  0  0  0  0
   33.2284   17.4893   35.6955 C   0  0  0  0  0  0  0  0  0  0  0  0
   34.1608   15.7428   37.1458 O   0  0  0  0  0  0  0  0  0  0  0  0
   32.1835   18.5288   36.1478 C   0  0  0  0  0  0  0  0  0  0  0  0
   35.7707   17.4445   36.3245 C   0  0  0  0  0  0  0  0  0  0  0  0
   31.3716   18.7793   35.0803 O   0  0  0  0  0  0  0  0  0  0  0  0
   34.2234   17.1747   36.8250 C   0  0  0  0  0  0  0  0  0  0  0  0
   36.5979   17.0951   37.5749 C   0  0  0  0  0  0  0  0  0  0  0  0
  1 13  1  0
  2  4  2  0
  3 20  1  0
  4  7  1  0
  4 12  1  0
  5 14  1  0
  5 19  1  0
  6  8  1  0
  6 12  1  0
  7  9  1  0
  7 10  1  0
  7 20  1  0
 10 15  1  0
 11 12  1  0
 11 13  1  0
 11 16  2  0
 13 23  1  0
 17 19  1  0
 17 22  1  0
 18 22  1  0
 19 21  1  0
 20 22  1  0
 20 23  1  0
M  END
>  <ID>  (1) 
conformer_0

$$$$
