
     RDKit          3D

 18 18  0  0  0  0  0  0  0  0999 V2000
   32.7521   18.6868   36.7481 C   0  0  0  0  0  0  0  0  0  0  0  0
   32.0416   15.9317   37.3060 O   0  0  0  0  0  0  0  0  0  0  0  0
   38.5661   20.7800   35.6732 O   0  0  0  0  0  0  0  0  0  0  0  0
   31.1456   17.3567   35.5509 C   0  0  0  0  0  0  0  0  0  0  0  0
   35.3633   18.3839   36.6878 C   0  0  0  0  0  0  0  0  0  0  0  0
   31.3362   17.8297   34.4084 O   0  0  0  0  0  0  0  0  0  0  0  0
   32.3836   17.1791   36.4569 C   0  0  0  0  0  0  0  0  0  0  0  0
   35.3696   17.5894   37.8145 O   0  0  0  0  0  0  0  0  0  0  0  0
   36.7109   19.1001   36.6842 C   0  0  0  0  0  0  0  0  0  0  0  0
   38.0432   18.5562   36.2212 C   0  0  0  0  0  0  0  0  0  0  0  0
   35.0379   17.3785   35.5208 C   0  0  0  0  0  0  0  0  0  0  0  0
   38.8149   19.5994   35.3910 C   0  0  0  0  0  0  0  0  0  0  0  0
   30.0420   17.3669   36.1617 O   0  0  0  0  0  0  0  0  0  0  0  0
   34.2681   20.2857   35.6178 O   0  0  0  0  0  0  0  0  0  0  0  0
   33.6965   16.6982   35.6868 C   0  0  0  0  0  0  0  0  0  0  0  0
   34.1683   19.3226   36.6730 C   0  0  0  0  0  0  0  0  0  0  0  0
   35.9662   17.6645   34.5091 O   0  0  0  0  0  0  0  0  0  0  0  0
   39.4455   19.1894   34.3356 N   0  0  0  0  0  0  0  0  0  0  0  0
  1  7  1  0
  1 16  1  0
  2  7  1  0
  3 12  2  0
  4  6  2  0
  4  7  1  0
  4 13  1  0
  5  8  1  0
  5  9  1  0
  5 11  1  0
  5 16  1  0
  7 15  1  0
  9 10  1  0
 10 12  1  0
 11 15  1  0
 11 17  1  0
 12 18  1  0
 14 16  1  0
M  END
>  <ID>  (1) 
conformer_0

$$$$
