
     RDKit          3D

 22 21  0  0  0  0  0  0  0  0999 V2000
   38.3920   15.4248   37.5126 C   0  0  0  0  0  0  0  0  0  0  0  0
   29.7027   17.8814   36.2957 O   0  0  0  0  0  0  0  0  0  0  0  0
   36.7258   18.5937   35.3360 C   0  0  0  0  0  0  0  0  0  0  0  0
   32.6748   16.1511   35.9670 O   0  0  0  0  0  0  0  0  0  0  0  0
   38.0214   20.6184   35.5232 O   0  0  0  0  0  0  0  0  0  0  0  0
   38.3446   19.1890   33.6689 O   0  0  0  0  0  0  0  0  0  0  0  0
   34.4910   17.9630   36.3786 N   0  0  0  0  0  0  0  0  0  0  0  0
   35.7164   19.1400   34.3893 O   0  0  0  0  0  0  0  0  0  0  0  0
   38.6712   17.5822   36.7189 O   0  0  0  0  0  0  0  0  0  0  0  0
   39.1955   18.5980   35.8314 C   0  0  0  0  0  0  0  0  0  0  0  0
   36.4212   16.6864   36.9580 C   0  0  0  0  0  0  0  0  0  0  0  0
   38.0722   19.3342   35.0516 C   0  0  0  0  0  0  0  0  0  0  0  0
   37.8391   16.7330   37.2589 C   0  0  0  0  0  0  0  0  0  0  0  0
   35.9460   18.0502   36.5503 C   0  0  0  0  0  0  0  0  0  0  0  0
   38.7524   17.8938   39.0395 O   0  0  0  0  0  0  0  0  0  0  0  0
   32.0722   17.4658   35.9792 C   0  0  0  0  0  0  0  0  0  0  0  0
   30.8128   17.3971   36.8846 C   0  0  0  0  0  0  0  0  0  0  0  0
   33.0884   19.8021   36.1028 O   0  0  0  0  0  0  0  0  0  0  0  0
   38.1442   17.9790   37.8246 C   0  0  0  0  0  0  0  0  0  0  0  0
   33.2019   18.4871   36.6407 C   0  0  0  0  0  0  0  0  0  0  0  0
   35.9166   15.6133   36.1739 O   0  0  0  0  0  0  0  0  0  0  0  0
   31.8621   17.9136   34.6551 O   0  0  0  0  0  0  0  0  0  0  0  0
  1 13  1  0
  2 17  1  0
  3  8  1  0
  3 12  1  0
  3 14  1  0
  4 16  1  0
  5 12  1  0
  6 12  1  0
  7 14  1  0
  7 20  1  0
  9 13  1  0
  9 19  1  0
 10 12  1  0
 11 13  1  0
 11 14  1  0
 11 21  1  0
 15 19  1  0
 16 17  1  0
 16 20  1  0
 16 22  1  0
 18 20  1  0
M  END
>  <ID>  (1) 
conformer_0

$$$$
