
     RDKit          3D

 11 10  0  0  0  0  0  0  0  0999 V2000
   31.2326   18.0816   36.0427 O   0  0  0  0  0  0  0  0  0  0  0  0
   38.2093   20.2216   35.8345 O   0  0  0  0  0  0  0  0  0  0  0  0
   32.2494   18.6684   35.1839 O   0  0  0  0  0  0  0  0  0  0  0  0
   34.4154   18.3937   36.3256 C   0  0  0  0  0  0  0  0  0  0  0  0
   38.4698   17.8133   36.0183 C   0  0  0  0  0  0  0  0  0  0  0  0
   33.2745   19.3325   36.0146 C   0  0  0  0  0  0  0  0  0  0  0  0
   37.5112   19.0397   36.0278 C   0  0  0  0  0  0  0  0  0  0  0  0
   36.8502   19.0647   37.2562 O   0  0  0  0  0  0  0  0  0  0  0  0
   35.2971   17.9963   35.2047 N   0  0  0  0  0  0  0  0  0  0  0  0
   36.4210   18.8494   34.8362 C   0  0  0  0  0  0  0  0  0  0  0  0
   36.0915   19.6344   33.6588 O   0  0  0  0  0  0  0  0  0  0  0  0
  1  3  1  0
  2  7  1  0
  3  6  1  0
  4  6  1  0
  4  9  1  0
  5  7  1  0
  7  8  1  0
  7 10  1  0
  9 10  1  0
 10 11  2  0
M  END
>  <ID>  (1) 
conformer_0

$$$$
