
     RDKit          3D

 34 37  0  0  0  0  0  0  0  0999 V2000
   35.0969   13.4772   35.7845 C   0  0  0  0  0  0  0  0  0  0  0  0
   34.6850   12.2964   36.4843 C   0  0  0  0  0  0  0  0  0  0  0  0
   29.7301   17.0529   37.8831 O   0  0  0  0  0  0  0  0  0  0  0  0
   31.9770   15.8921   35.5845 C   0  0  0  0  0  0  0  0  0  0  0  0
   38.0135   14.0456   33.0399 O   0  0  0  0  0  0  0  0  0  0  0  0
   32.8388   16.7602   37.5937 O   0  0  0  0  0  0  0  0  0  0  0  0
   33.3408   15.2945   35.3633 O   0  0  0  0  0  0  0  0  0  0  0  0
   39.3385   17.4645   36.2698 C   0  0  0  0  0  0  0  0  0  0  0  0
   34.3947   18.4577   36.8135 C   0  0  0  0  0  0  0  0  0  0  0  0
   38.8580   18.2256   35.0150 C   0  0  0  0  0  0  0  0  0  0  0  0
   39.9476   19.0099   34.4738 O   0  0  0  0  0  0  0  0  0  0  0  0
   39.8235   15.1912   32.1755 O   0  0  0  0  0  0  0  0  0  0  0  0
   38.7417   18.1968   37.4569 C   0  0  0  0  0  0  0  0  0  0  0  0
   33.4219   20.5600   36.1398 O   0  0  0  0  0  0  0  0  0  0  0  0
   35.5162   19.4320   34.9863 O   0  0  0  0  0  0  0  0  0  0  0  0
   33.2509   19.1526   36.1253 C   0  0  0  0  0  0  0  0  0  0  0  0
   39.2553   15.7171   34.3618 C   0  0  0  0  0  0  0  0  0  0  0  0
   36.5664   17.5531   37.5796 O   0  0  0  0  0  0  0  0  0  0  0  0
   39.2878   15.9356   35.9178 C   0  0  0  0  0  0  0  0  0  0  0  0
   35.2579   13.6550   34.5312 O   0  0  0  0  0  0  0  0  0  0  0  0
   35.6593   19.3208   36.4499 C   0  0  0  0  0  0  0  0  0  0  0  0
   38.9876   14.8369   33.0783 C   0  0  0  0  0  0  0  0  0  0  0  0
   39.0344   17.5648   38.6527 O   0  0  0  0  0  0  0  0  0  0  0  0
   31.7356   17.0675   36.6294 C   0  0  0  0  0  0  0  0  0  0  0  0
   38.8002   17.1080   33.9344 N   0  0  0  0  0  0  0  0  0  0  0  0
   30.1954   17.1937   36.7696 C   0  0  0  0  0  0  0  0  0  0  0  0
   29.6310   17.6072   35.7446 O   0  0  0  0  0  0  0  0  0  0  0  0
   37.9338   19.3198   35.6326 C   0  0  0  0  0  0  0  0  0  0  0  0
   35.2046   14.6016   36.7113 O   0  0  0  0  0  0  0  0  0  0  0  0
   31.9516   18.6105   36.5761 C   0  0  0  0  0  0  0  0  0  0  0  0
   38.1926   20.6681   35.8794 O   0  0  0  0  0  0  0  0  0  0  0  0
   37.2216   18.7458   36.9044 C   0  0  0  0  0  0  0  0  0  0  0  0
   34.3885   15.6616   36.1887 C   0  0  0  0  0  0  0  0  0  0  0  0
   34.0856   16.9310   36.9152 C   0  0  0  0  0  0  0  0  0  0  0  0
  1  2  1  0
  1 20  2  0
  1 29  1  0
  3 26  2  0
  4  7  1  0
  4 24  1  0
  5 22  2  0
  6 24  1  0
  6 34  1  0
  7 33  1  0
  8 10  1  0
  8 13  1  0
  8 19  1  0
  9 16  1  0
  9 21  1  0
  9 34  1  0
 10 11  1  0
 10 25  1  0
 10 28  1  0
 12 22  1  0
 13 23  1  0
 13 32  1  0
 14 16  1  0
 15 21  1  0
 16 30  1  0
 17 19  1  0
 17 22  1  0
 17 25  2  0
 18 32  1  0
 21 32  1  0
 24 26  1  0
 24 30  1  0
 26 27  1  0
 28 31  1  0
 28 32  1  0
 29 33  1  0
 33 34  1  0
M  END
>  <ID>  (1) 
conformer_0

$$$$
