
     RDKit          3D

 18 18  0  0  0  0  0  0  0  0999 V2000
   34.2780   16.7100   36.4946 O   0  0  0  0  0  0  0  0  0  0  0  0
   35.3686   18.9101   35.3597 C   0  0  0  0  0  0  0  0  0  0  0  0
   37.2776   17.3160   35.0991 C   0  0  0  0  0  0  0  0  0  0  0  0
   36.7515   17.2847   36.3986 N   0  0  0  0  0  0  0  0  0  0  0  0
   32.8323   16.3192   36.7921 C   0  0  0  0  0  0  0  0  0  0  0  0
   34.3616   18.1245   36.2988 C   0  0  0  0  0  0  0  0  0  0  0  0
   32.2080   17.5857   37.3747 C   0  0  0  0  0  0  0  0  0  0  0  0
   36.8875   18.6565   35.8749 C   0  0  0  0  0  0  0  0  0  0  0  0
   37.3640   20.5935   34.4700 O   0  0  0  0  0  0  0  0  0  0  0  0
   32.9879   18.7338   36.6786 C   0  0  0  0  0  0  0  0  0  0  0  0
   38.9790   17.3125   37.7843 O   0  0  0  0  0  0  0  0  0  0  0  0
   29.9994   17.9692   36.4836 O   0  0  0  0  0  0  0  0  0  0  0  0
   37.7905   19.7573   35.3253 C   0  0  0  0  0  0  0  0  0  0  0  0
   36.6291   16.7008   37.7128 C   0  0  0  0  0  0  0  0  0  0  0  0
   37.8500   17.1860   38.5540 C   0  0  0  0  0  0  0  0  0  0  0  0
   32.3898   19.2020   35.5090 O   0  0  0  0  0  0  0  0  0  0  0  0
   38.9715   19.7663   35.7689 O   0  0  0  0  0  0  0  0  0  0  0  0
   30.7461   17.8699   37.6121 C   0  0  0  0  0  0  0  0  0  0  0  0
  1  5  1  0
  1  6  1  0
  2  6  1  0
  2  8  1  0
  3  4  1  0
  4  8  1  0
  4 14  1  0
  5  7  1  0
  6 10  1  0
  7 10  1  0
  7 18  1  0
  8 13  1  0
  9 13  2  0
 10 16  1  0
 11 15  1  0
 12 18  1  0
 13 17  1  0
 14 15  1  0
M  END
>  <ID>  (1) 
conformer_0

$$$$
