
     RDKit          3D

 18 19  0  0  0  0  0  0  0  0999 V2000
   34.9776   18.5644   35.8937 C   0  0  0  0  0  0  0  0  0  0  0  0
   32.3506   17.8236   35.8213 C   0  0  0  0  0  0  0  0  0  0  0  0
   37.2903   18.2037   36.8214 C   0  0  0  0  0  0  0  0  0  0  0  0
   29.9679   17.9145   36.4212 O   0  0  0  0  0  0  0  0  0  0  0  0
   38.1576   20.6968   35.6506 O   0  0  0  0  0  0  0  0  0  0  0  0
   36.5516   17.0721   37.5439 C   0  0  0  0  0  0  0  0  0  0  0  0
   31.7315   18.1467   34.5853 O   0  0  0  0  0  0  0  0  0  0  0  0
   37.7092   19.7535   34.9318 C   0  0  0  0  0  0  0  0  0  0  0  0
   33.3579   16.7092   35.6296 O   0  0  0  0  0  0  0  0  0  0  0  0
   31.2324   17.5861   36.8422 C   0  0  0  0  0  0  0  0  0  0  0  0
   33.4256   18.9390   36.3256 C   0  0  0  0  0  0  0  0  0  0  0  0
   38.0095   19.4668   33.7271 O   0  0  0  0  0  0  0  0  0  0  0  0
   34.8235   17.0553   35.6236 C   0  0  0  0  0  0  0  0  0  0  0  0
   37.1469   16.3956   38.6120 O   0  0  0  0  0  0  0  0  0  0  0  0
   36.5869   18.8724   35.5572 C   0  0  0  0  0  0  0  0  0  0  0  0
   35.4902   16.2972   36.7965 C   0  0  0  0  0  0  0  0  0  0  0  0
   35.7873   14.9774   36.4778 O   0  0  0  0  0  0  0  0  0  0  0  0
   35.3030   19.6465   34.9636 O   0  0  0  0  0  0  0  0  0  0  0  0
  1 11  1  0
  1 13  1  0
  1 15  1  0
  1 18  1  0
  2  7  1  0
  2  9  1  0
  2 10  1  0
  2 11  1  0
  3  6  1  0
  3 15  1  0
  4 10  1  0
  5  8  2  0
  6 14  1  0
  6 16  1  0
  8 12  1  0
  8 15  1  0
  9 13  1  0
 13 16  1  0
 16 17  1  0
M  END
>  <ID>  (1) 
conformer_0

$$$$
