
     RDKit          3D

 11 10  0  0  0  0  0  0  0  0999 V2000
   31.8077   18.3945   35.2540 O   0  0  0  0  0  0  0  0  0  0  0  0
   33.6208   20.6359   35.9449 O   0  0  0  0  0  0  0  0  0  0  0  0
   39.0161   18.5129   37.1436 O   0  0  0  0  0  0  0  0  0  0  0  0
   37.9479   20.1485   36.0461 O   0  0  0  0  0  0  0  0  0  0  0  0
   38.0065   18.9814   36.5126 C   0  0  0  0  0  0  0  0  0  0  0  0
   33.2066   18.1359   35.7961 C   0  0  0  0  0  0  0  0  0  0  0  0
   36.9553   17.9494   36.2342 C   0  0  0  0  0  0  0  0  0  0  0  0
   34.7747   18.3091   35.4831 C   0  0  0  0  0  0  0  0  0  0  0  0
   35.6485   18.3338   36.7032 O   0  0  0  0  0  0  0  0  0  0  0  0
   33.1308   16.6348   35.7858 O   0  0  0  0  0  0  0  0  0  0  0  0
   33.3266   19.4591   36.6702 C   0  0  0  0  0  0  0  0  0  0  0  0
  1  6  1  0
  2 11  1  0
  3  5  2  0
  4  5  1  0
  5  7  1  0
  6  8  1  0
  6 10  1  0
  6 11  1  0
  7  9  1  0
  8  9  1  0
M  END
>  <ID>  (1) 
conformer_0

$$$$
