
     RDKit          3D

 27 29  0  0  0  0  0  0  0  0999 V2000
   31.5065   16.0831   37.7351 C   0  0  0  0  0  0  0  0  0  0  0  0
   40.0264   18.5078   36.9039 O   0  0  0  0  0  1  0  0  0  0  0  0
   30.3952   17.3611   36.2913 C   0  0  0  0  0  0  0  0  0  0  0  0
   32.9924   20.0101   36.4311 O   0  0  0  0  0  0  0  0  0  0  0  0
   31.7218   17.7916   36.3279 C   0  0  0  0  0  0  0  0  0  0  0  0
   37.5187   17.8055   35.4963 C   0  0  0  0  0  0  0  0  0  0  0  0
   30.3119   16.3671   37.1598 N   0  0  0  0  0  0  0  0  0  0  0  0
   29.4503   17.9077   35.7604 O   0  0  0  0  0  0  0  0  0  0  0  0
   36.0458   17.0215   37.2931 N   0  0  0  0  0  0  0  0  0  0  0  0
   29.1450   16.1728   37.9649 C   0  0  0  0  0  0  0  0  0  0  0  0
   33.1724   14.9903   39.0043 C   0  0  0  0  0  0  0  0  0  0  0  0
   39.8430   18.0365   34.6670 O   0  0  0  0  0  0  0  0  0  0  0  0
   31.8126   15.1300   38.6586 C   0  0  0  0  0  0  0  0  0  0  0  0
   36.4477   18.8548   35.5155 C   0  0  0  0  0  0  0  0  0  0  0  0
   37.2759   19.3483   33.3207 C   0  0  0  0  0  0  0  0  0  0  0  0
   32.4054   16.8991   37.2138 C   0  0  0  0  0  0  0  0  0  0  0  0
   34.1227   15.7889   38.4184 C   0  0  0  0  0  0  0  0  0  0  0  0
   32.2769   18.9640   35.6981 C   0  0  0  0  0  0  0  0  0  0  0  0
   35.8317   19.5455   33.0817 O   0  0  0  0  0  0  0  0  0  0  0  0
   35.0044   18.3620   35.6774 C   0  0  0  0  0  0  0  0  0  0  0  0
   33.7653   16.7470   37.5195 C   0  0  0  0  0  0  0  0  0  0  0  0
   38.0654   20.5713   35.5174 O   0  0  0  0  0  0  0  0  0  0  0  0
   38.2808   16.8730   36.6006 C   0  0  0  0  0  0  0  0  0  0  0  0
   37.3708   17.1861   37.8342 C   0  0  0  0  0  0  0  0  0  0  0  0
   37.4388   19.7014   34.7410 C   0  0  0  0  0  0  0  0  0  0  0  0
   39.0418   17.9771   35.9059 P   0  0  0  0  0  4  0  0  0  0  0  0
   34.8272   17.5743   36.8853 C   0  0  0  0  0  0  0  0  0  0  0  0
  1  7  1  0
  1 13  1  0
  1 16  2  0
  2 26  2  0
  3  5  1  0
  3  7  1  0
  3  8  2  0
  4 18  1  0
  5 16  1  0
  5 18  1  0
  6 14  1  0
  6 26  1  0
  7 10  1  0
  9 24  1  0
  9 27  1  0
 11 13  2  0
 11 17  1  0
 12 26  1  0
 14 20  1  0
 14 25  1  0
 15 19  1  0
 15 25  1  0
 16 21  1  0
 17 21  2  0
 20 27  1  0
 21 27  1  0
 22 25  1  0
 23 24  1  0
 23 26  1  0
M  END
>  <ID>  (1) 
conformer_0

$$$$
