
     RDKit          3D

 19 20  0  0  0  0  0  0  0  0999 V2000
   31.4171   18.7553   34.9618 O   0  0  0  0  0  0  0  0  0  0  0  0
   35.5655   18.3209   36.4979 C   0  0  0  0  0  0  0  0  0  0  0  0
   32.8119   16.4582   38.3015 C   0  0  0  0  0  0  0  0  0  0  0  0
   30.7961   17.6139   37.0914 C   0  0  0  0  0  0  0  0  0  0  0  0
   34.3045   18.7977   35.8167 C   0  0  0  0  0  0  0  0  0  0  0  0
   39.2353   18.7354   34.2507 O   0  0  0  0  0  1  0  0  0  0  0  0
   36.5644   17.7045   35.4509 C   0  0  0  0  0  0  0  0  0  0  0  0
   38.2246   20.2430   36.0308 O   0  0  0  0  0  0  0  0  0  0  0  0
   31.7531   18.2520   36.1751 C   0  0  0  0  0  0  0  0  0  0  0  0
   33.7530   16.9983   37.2709 C   0  0  0  0  0  0  0  0  0  0  0  0
   38.9508   18.9218   35.7705 P   0  0  0  0  0  4  0  0  0  0  0  0
   29.5106   17.8613   37.0521 O   0  0  0  0  0  0  0  0  0  0  0  0
   31.3328   16.6651   38.0918 C   0  0  0  0  0  0  0  0  0  0  0  0
   40.2247   18.8463   36.5529 O   0  0  0  0  0  0  0  0  0  0  0  0
   30.6815   15.4141   37.9976 O   0  0  0  0  0  0  0  0  0  0  0  0
   33.8924   20.1631   35.8079 O   0  0  0  0  0  0  0  0  0  0  0  0
   33.1810   17.9839   36.3555 C   0  0  0  0  0  0  0  0  0  0  0  0
   37.9266   17.4564   36.2390 C   0  0  0  0  0  0  0  0  0  0  0  0
   35.1750   17.1447   37.3557 N   0  0  0  0  0  0  0  0  0  0  0  0
  1  9  1  0
  2  5  1  0
  2  7  1  0
  2 19  1  0
  3 10  1  0
  3 13  1  0
  4  9  1  0
  4 12  1  0
  4 13  1  0
  5 16  1  0
  5 17  1  0
  6 11  2  0
  7 18  1  0
  8 11  1  0
  9 17  1  0
 10 17  1  0
 10 19  1  0
 11 14  1  0
 11 18  1  0
 13 15  1  0
M  END
>  <ID>  (1) 
conformer_0

$$$$
