
     RDKit          3D

 18 18  0  0  0  0  0  0  0  0999 V2000
   37.8087   16.9674   37.8134 C   0  0  0  0  0  0  0  0  0  0  0  0
   32.3477   18.7352   34.8337 N   0  0  0  0  0  0  0  0  0  0  0  0
   35.7936   19.5479   34.1057 O   0  0  0  0  0  0  0  0  0  0  0  0
   34.6789   17.9945   35.9244 O   0  0  0  0  0  0  0  0  0  0  0  0
   31.9759   18.5380   37.1637 O   0  0  0  0  0  0  0  0  0  0  0  0
   37.8591   19.3293   35.9006 C   0  0  0  0  0  0  0  0  0  0  0  0
   38.0841   20.6462   35.8555 O   0  0  0  0  0  0  0  0  0  0  0  0
   38.0482   15.5589   37.8976 O   0  0  0  0  0  0  0  0  0  0  0  0
   39.4772   17.9867   34.8330 O   0  0  0  0  0  0  0  0  0  0  0  0
   36.0790   17.6801   35.5529 C   0  0  0  0  0  0  0  0  0  0  0  0
   36.8242   18.8295   34.8617 C   0  0  0  0  0  0  0  0  0  0  0  0
   31.8538   17.9098   35.9004 C   0  0  0  0  0  0  0  0  0  0  0  0
   34.0815   16.6919   36.4194 C   0  0  0  0  0  0  0  0  0  0  0  0
   32.6747   16.4616   35.7700 C   0  0  0  0  0  0  0  0  0  0  0  0
   39.1252   17.6401   37.4216 C   0  0  0  0  0  0  0  0  0  0  0  0
   30.4760   17.5747   35.6745 N   0  0  0  0  0  0  0  0  0  0  0  0
   38.9971   18.3936   36.1035 C   0  0  0  0  0  0  0  0  0  0  0  0
   36.6194   17.1842   36.9223 C   0  0  0  0  0  0  0  0  0  0  0  0
  1  8  1  0
  1 15  1  0
  1 18  1  0
  2 12  1  0
  3 11  1  0
  4 10  1  0
  4 13  1  0
  5 12  1  0
  6  7  1  0
  6 11  1  0
  6 17  1  0
  9 17  1  0
 10 11  1  0
 10 18  1  0
 12 14  1  0
 12 16  1  0
 13 14  1  0
 15 17  1  0
M  END
>  <ID>  (1) 
conformer_0

$$$$
