
     RDKit          3D

 25 26  0  0  0  0  0  0  0  0999 V2000
   37.1201   18.3581   34.8388 C   0  0  0  0  0  0  0  0  0  0  0  0
   33.3880   19.2355   35.7545 O   0  0  0  0  0  0  0  0  0  0  0  0
   36.3404   15.9284   38.3825 N   0  0  0  0  0  0  0  0  0  0  0  0
   35.0495   15.6166   38.5205 N   0  0  0  0  0  0  0  0  0  0  0  0
   34.6481   14.4257   39.2933 C   0  0  0  0  0  0  0  0  0  0  0  0
   37.9019   17.3505   37.7975 F   0  0  0  0  0  0  0  0  0  0  0  0
   31.5952   15.7264   37.5004 O   0  0  0  0  0  0  0  0  0  0  0  0
   36.1577   20.4160   33.8684 O   0  0  0  0  0  0  0  0  0  0  0  0
   33.3869   18.3621   36.7281 C   0  0  0  0  0  0  0  0  0  0  0  0
   39.9880   18.6341   36.5086 O   0  0  0  0  0  1  0  0  0  0  0  0
   29.4990   16.6121   37.0188 O   0  0  0  0  0  0  0  0  0  0  0  0
   34.3982   17.4055   37.1919 C   0  0  0  0  0  0  0  0  0  0  0  0
   34.1326   16.3800   37.9339 C   0  0  0  0  0  0  0  0  0  0  0  0
   38.9992   19.1603   35.4004 P   0  0  0  0  0  4  0  0  0  0  0  0
   38.4040   20.5048   35.8593 O   0  0  0  0  0  0  0  0  0  0  0  0
   31.7519   17.0287   38.1590 C   0  0  0  0  0  0  0  0  0  0  0  0
   30.6718   16.1145   36.3690 C   0  0  0  0  0  0  0  0  0  0  0  0
   30.7775   18.1915   35.0182 O   0  0  0  0  0  0  0  0  0  0  0  0
   39.7153   18.9295   34.0437 O   0  0  0  0  0  0  0  0  0  0  0  0
   31.5227   17.2314   35.7543 C   0  0  0  0  0  0  0  0  0  0  0  0
   35.9840   18.5668   35.6798 C   0  0  0  0  0  0  0  0  0  0  0  0
   35.6996   17.6419   36.8569 C   0  0  0  0  0  0  0  0  0  0  0  0
   31.9755   17.9811   37.0563 C   0  0  0  0  0  0  0  0  0  0  0  0
   36.9488   19.2908   33.5962 C   0  0  0  0  0  0  0  0  0  0  0  0
   36.6536   16.9922   37.6489 C   0  0  0  0  0  0  0  0  0  0  0  0
  1 14  1  0
  1 21  1  0
  1 24  1  0
  2  9  1  0
  3  4  1  0
  3 25  2  0
  4  5  1  0
  4 13  1  0
  6 25  1  0
  7 16  1  0
  7 17  1  0
  8 24  1  0
  9 12  1  0
  9 23  1  0
 10 14  2  0
 11 17  1  0
 12 13  2  0
 12 22  1  0
 14 15  1  0
 14 19  1  0
 16 23  1  0
 17 20  1  0
 18 20  1  0
 20 23  1  0
 21 22  1  0
 22 25  1  0
M  END
>  <ID>  (1) 
conformer_0

$$$$
