
     RDKit          3D

 20 21  0  0  0  0  0  0  0  0999 V2000
   35.8477   18.9060   34.9433 C   0  0  0  0  0  0  0  0  0  0  0  0
   37.2155   19.4813   35.3636 C   0  0  0  0  0  0  0  0  0  0  0  0
   34.5105   17.3387   36.7184 C   0  0  0  0  0  0  0  0  0  0  0  0
   32.5938   16.1054   38.2793 C   0  0  0  0  0  0  0  0  0  0  0  0
   31.7592   18.7252   34.8910 O   0  0  0  0  0  0  0  0  0  0  0  0
   33.1502   17.7585   36.6663 C   0  0  0  0  0  0  0  0  0  0  0  0
   36.9021   17.5149   36.5677 C   0  0  0  0  0  0  0  0  0  0  0  0
   32.1933   17.0682   37.4194 C   0  0  0  0  0  0  0  0  0  0  0  0
   32.7370   18.9543   35.8766 C   0  0  0  0  0  0  0  0  0  0  0  0
   37.5866   20.5869   34.8008 O   0  0  0  0  0  0  0  0  0  0  0  0
   40.0789   19.2713   35.8077 O   0  0  0  0  0  0  0  0  0  0  0  0
   39.2907   18.4494   36.4198 C   0  0  0  0  0  0  0  0  0  0  0  0
   35.6005   17.9104   35.9552 N   0  0  0  0  0  0  0  0  0  0  0  0
   30.7854   17.1686   37.3364 O   0  0  0  0  0  0  0  0  0  0  0  0
   29.9426   18.1160   37.6022 O   0  0  0  0  0  0  0  0  0  0  0  0
   33.9216   15.7540   38.3742 C   0  0  0  0  0  0  0  0  0  0  0  0
   34.8533   16.3507   37.5820 C   0  0  0  0  0  0  0  0  0  0  0  0
   37.9181   18.3265   35.9374 C   0  0  0  0  0  0  0  0  0  0  0  0
   39.6671   17.7591   37.4497 O   0  0  0  0  0  0  0  0  0  0  0  0
   34.9921   20.0015   34.7397 O   0  0  0  0  0  0  0  0  0  0  0  0
  1  2  1  0
  1 13  1  0
  1 20  1  0
  2 10  1  0
  2 18  1  0
  3  6  1  0
  3 13  1  0
  3 17  2  0
  4  8  2  0
  4 16  1  0
  5  9  1  0
  6  8  1  0
  6  9  1  0
  7 13  1  0
  7 18  1  0
  8 14  1  0
 11 12  2  0
 12 18  1  0
 12 19  1  0
 14 15  1  0
 16 17  1  0
M  END
>  <ID>  (1) 
conformer_0

$$$$
