
     RDKit          3D

 21 21  0  0  0  0  0  0  0  0999 V2000
   33.0306   16.2756   35.1496 O   0  0  0  0  0  0  0  0  0  0  0  0
   30.1392   18.1317   35.5238 O   0  0  0  0  0  0  0  0  0  0  0  0
   31.3717   18.3915   35.0152 C   0  0  0  0  0  0  0  0  0  0  0  0
   37.8066   18.5848   37.2228 C   0  0  0  0  0  0  0  0  0  0  0  0
   33.0757   19.9205   36.2191 C   0  0  0  0  0  0  0  0  0  0  0  0
   37.8920   18.1415   34.6380 C   0  0  0  0  0  0  0  0  0  0  0  0
   34.3814   16.9747   37.8115 O   0  0  0  0  0  0  0  0  0  0  0  0
   36.1465   17.0604   36.1351 C   0  0  0  0  0  0  0  0  0  0  0  0
   31.8935   18.2590   37.3631 O   0  0  0  0  0  0  0  0  0  0  0  0
   37.3957   17.0997   37.0123 C   0  0  0  0  0  0  0  0  0  0  0  0
   34.7351   17.2324   36.5633 C   0  0  0  0  0  0  0  0  0  0  0  0
   38.0987   20.4317   35.6242 O   0  0  0  0  0  0  0  0  0  0  0  0
   37.1440   16.3593   38.3789 C   0  0  0  0  0  0  0  0  0  0  0  0
   35.5954   18.9946   34.4870 O   0  0  0  0  0  0  0  0  0  0  0  0
   38.4815   19.1165   35.8627 C   0  0  0  0  0  0  0  0  0  0  0  0
   38.7757   16.4842   36.5685 C   0  0  0  0  0  0  0  0  0  0  0  0
   39.7915   16.7181   37.7459 C   0  0  0  0  0  0  0  0  0  0  0  0
   39.8964   19.1025   35.9985 O   0  0  0  0  0  0  0  0  0  0  0  0
   36.4065   17.9106   34.9178 C   0  0  0  0  0  0  0  0  0  0  0  0
   33.6606   17.5063   35.5456 C   0  0  0  0  0  0  0  0  0  0  0  0
   32.4920   18.4701   36.0944 C   0  0  0  0  0  0  0  0  0  0  0  0
  1 20  1  0
  2  3  1  0
  3 21  1  0
  4 10  1  0
  4 15  1  0
  5 21  1  0
  6 15  1  0
  6 19  1  0
  7 11  1  0
  8 10  1  0
  8 11  1  0
  8 19  1  0
  9 21  1  0
 10 13  1  0
 10 16  1  0
 11 20  1  0
 12 15  1  0
 14 19  1  0
 15 18  1  0
 16 17  1  0
 20 21  1  0
M  END
>  <ID>  (1) 
conformer_0

$$$$
