
     RDKit          3D

 20 20  0  0  0  0  0  0  0  0999 V2000
   33.1997   16.0430   36.5569 O   0  0  0  0  0  0  0  0  0  0  0  0
   39.5449   18.5573   36.9486 O   0  0  0  0  0  1  0  0  0  0  0  0
   35.2487   16.2310   38.3078 O   0  0  0  0  0  0  0  0  0  0  0  0
   30.2388   18.2065   37.2442 O   0  0  0  0  0  0  0  0  0  0  0  0
   32.6728   18.2157   37.3519 C   0  0  0  0  0  0  0  0  0  0  0  0
   36.2606   17.9065   37.0863 O   0  0  0  0  0  0  0  0  0  0  0  0
   38.5376   20.5656   35.9021 O   0  0  0  0  0  0  0  0  0  0  0  0
   32.3999   19.4443   36.6195 C   0  0  0  0  0  0  0  0  0  0  0  0
   40.0576   19.0546   34.5930 O   0  0  0  0  0  0  0  0  0  0  0  0
   39.0116   19.1651   35.6809 P   0  0  0  0  0  4  0  0  0  0  0  0
   35.0563   17.3024   37.4438 C   0  0  0  0  0  0  0  0  0  0  0  0
   37.6902   18.3285   35.2119 O   0  0  0  0  0  0  0  0  0  0  0  0
   32.7605   17.8587   34.6389 O   0  0  0  0  0  0  0  0  0  0  0  0
   36.4605   18.6555   35.9430 C   0  0  0  0  0  0  0  0  0  0  0  0
   33.3306   20.3728   36.0645 O   0  0  0  0  0  0  0  0  0  0  0  0
   31.3814   17.7019   37.8845 C   0  0  0  0  0  0  0  0  0  0  0  0
   33.7736   17.3427   36.7184 C   0  0  0  0  0  0  0  0  0  0  0  0
   35.5696   19.2738   33.8183 O   0  0  0  0  0  0  0  0  0  0  0  0
   33.9760   17.9695   35.3030 C   0  0  0  0  0  0  0  0  0  0  0  0
   35.2294   18.7673   35.0971 C   0  0  0  0  0  0  0  0  0  0  0  0
  1 17  1  0
  2 10  2  0
  3 11  2  0
  4 16  1  0
  5  8  1  0
  5 16  1  0
  5 17  1  0
  6 11  1  0
  6 14  1  0
  7 10  1  0
  8 15  1  0
  9 10  1  0
 10 12  1  0
 11 17  1  0
 12 14  1  0
 13 19  1  0
 14 20  1  0
 17 19  1  0
 18 20  1  0
 19 20  1  0
M  END
>  <ID>  (1) 
conformer_0

$$$$
