
     RDKit          3D

 18 20  0  0  0  0  0  0  0  0999 V2000
   32.4759   17.6407   35.3175 N   0  0  0  0  0  0  0  0  0  0  0  0
   31.7157   17.1382   37.4401 C   0  0  0  0  0  0  0  0  0  0  0  0
   37.5308   19.1939   34.3497 C   0  0  0  0  0  0  0  0  0  0  0  0
   33.6791   17.6244   36.0361 C   0  0  0  0  0  0  0  0  0  0  0  0
   36.1273   17.4508   35.3181 C   0  0  0  0  0  0  0  0  0  0  0  0
   29.7915   17.7438   36.4255 O   0  0  0  0  0  0  0  0  0  0  0  0
   35.0775   19.7074   34.9411 O   0  0  0  0  0  0  0  0  0  0  0  0
   38.8529   20.2483   35.9217 O   0  0  0  0  0  0  0  0  0  0  0  0
   38.6397   18.9700   35.3899 C   0  0  0  0  0  0  0  0  0  0  0  0
   31.2171   17.5969   36.1248 C   0  0  0  0  0  0  0  0  0  0  0  0
   37.4492   16.8116   35.7742 C   0  0  0  0  0  0  0  0  0  0  0  0
   30.6026   17.0192   38.4121 C   0  0  0  0  0  0  0  0  0  0  0  0
   29.4369   17.7369   37.8308 C   0  0  0  0  0  0  0  0  0  0  0  0
   34.8319   16.9079   35.6599 N   0  0  0  0  0  0  0  0  0  0  0  0
   36.1831   18.8876   35.0011 C   0  0  0  0  0  0  0  0  0  0  0  0
   33.2145   17.2547   37.4072 C   0  0  0  0  0  0  0  0  0  0  0  0
   38.4172   17.8562   36.3814 C   0  0  0  0  0  0  0  0  0  0  0  0
   37.9339   18.3055   37.6531 O   0  0  0  0  0  0  0  0  0  0  0  0
  1  4  1  0
  1 10  1  0
  2 10  2  0
  2 12  1  0
  2 16  1  0
  3  9  1  0
  3 15  1  0
  4 14  1  0
  4 16  1  0
  5 11  1  0
  5 14  1  0
  5 15  1  0
  6 10  1  0
  6 13  1  0
  7 15  1  0
  8  9  1  0
  9 17  1  0
 11 17  1  0
 12 13  1  0
 17 18  1  0
M  END
>  <ID>  (1) 
conformer_0

$$$$
