
     RDKit          3D

 17 17  0  0  0  0  0  0  0  0999 V2000
   32.4963   18.1890   36.3935 C   0  0  0  0  0  0  0  0  0  0  0  0
   35.2108   19.6100   34.4585 O   0  0  0  0  0  0  0  0  0  0  0  0
   33.2932   20.5563   36.0068 O   0  0  0  0  0  0  0  0  0  0  0  0
   36.7977   15.7824   35.4205 O   0  0  0  0  0  0  0  0  0  0  0  0
   33.1873   16.9043   36.5014 O   0  0  0  0  0  0  0  0  0  0  0  0
   39.1493   17.1824   36.5325 O   0  0  0  0  0  0  0  0  0  0  0  0
   38.7259   18.4330   36.2773 C   0  0  0  0  0  0  0  0  0  0  0  0
   33.6196   19.2301   36.3309 C   0  0  0  0  0  0  0  0  0  0  0  0
   35.8898   16.3073   37.6726 C   0  0  0  0  0  0  0  0  0  0  0  0
   34.8286   18.7001   35.5325 C   0  0  0  0  0  0  0  0  0  0  0  0
   37.4170   19.0188   35.7862 C   0  0  0  0  0  0  0  0  0  0  0  0
   36.6438   16.7287   36.4409 C   0  0  0  0  0  0  0  0  0  0  0  0
   34.3835   16.9349   37.4917 C   0  0  0  0  0  0  0  0  0  0  0  0
   36.1803   18.0748   36.0044 C   0  0  0  0  0  0  0  0  0  0  0  0
   39.7130   19.2971   36.3479 O   0  0  0  0  0  0  0  0  0  0  0  0
   37.7528   20.2280   34.9914 C   0  0  0  0  0  0  0  0  0  0  0  0
   31.5348   18.3524   35.4764 O   0  0  0  0  0  0  0  0  0  0  0  0
  1  5  1  0
  1  8  1  0
  1 17  1  0
  2 10  1  0
  3  8  1  0
  4 12  1  0
  5 13  1  0
  6  7  2  0
  7 11  1  0
  7 15  1  0
  8 10  1  0
  9 12  1  0
  9 13  1  0
 10 14  1  0
 11 14  1  0
 11 16  1  0
 12 14  1  0
M  END
>  <ID>  (1) 
conformer_0

$$$$
