
     RDKit          3D

 16 17  0  0  0  0  0  0  0  0999 V2000
   33.6576   18.0884   35.4649 N   0  0  0  0  0  0  0  0  0  0  0  0
   37.5407   18.4394   36.0004 C   0  0  0  0  0  0  0  0  0  0  0  0
   32.6963   18.8428   36.4191 C   0  0  0  0  0  0  0  0  0  0  0  0
   38.1458   19.6986   35.5495 C   0  0  0  0  0  0  0  0  0  0  0  0
   36.0424   18.2999   36.0109 C   0  0  0  0  0  0  0  0  0  0  0  0
   34.8754   18.9353   35.2967 C   0  0  0  0  0  0  0  0  0  0  0  0
   30.6119   17.8256   36.9046 O   0  0  0  0  0  0  0  0  0  0  0  0
   37.5036   20.4754   34.7212 O   0  0  0  0  0  0  0  0  0  0  0  0
   35.5314   17.1201   36.7345 C   0  0  0  0  0  0  0  0  0  0  0  0
   37.8928   16.0464   36.6097 C   0  0  0  0  0  0  0  0  0  0  0  0
   36.3786   15.8868   36.7825 C   0  0  0  0  0  0  0  0  0  0  0  0
   34.0778   16.8813   36.3079 C   0  0  0  0  0  0  0  0  0  0  0  0
   38.2202   17.4996   36.9868 C   0  0  0  0  0  0  0  0  0  0  0  0
   31.1221   18.4839   34.8292 O   0  0  0  0  0  0  0  0  0  0  0  0
   39.4046   19.8412   35.8102 O   0  0  0  0  0  0  0  0  0  0  0  0
   31.3009   18.2859   36.0403 C   0  0  0  0  0  0  0  0  0  0  0  0
  1  3  1  0
  1  6  1  0
  1 12  1  0
  2  4  1  0
  2  5  1  0
  2 13  1  0
  3 16  1  0
  4  8  2  0
  4 15  1  0
  5  6  1  0
  5  9  1  0
  7 16  2  0
  9 11  1  0
  9 12  1  0
 10 11  1  0
 10 13  1  0
 14 16  1  0
M  END
>  <ID>  (1) 
conformer_0

$$$$
