
     RDKit          3D

 17 18  0  0  0  0  0  0  0  0999 V2000
   31.1724   17.4896   36.1407 C   0  0  0  0  0  0  0  0  0  0  0  0
   34.8066   18.5644   36.3963 C   0  0  0  0  0  0  0  0  0  0  0  0
   35.4593   16.6332   37.7731 O   0  0  0  0  0  0  0  0  0  0  0  0
   38.6677   19.5974   35.6471 C   0  0  0  0  0  0  0  0  0  0  0  0
   32.3792   18.2320   35.6192 C   0  0  0  0  0  0  0  0  0  0  0  0
   30.0127   18.1450   36.1763 O   0  0  0  0  0  0  0  0  0  0  0  0
   36.3379   19.1118   34.5387 C   0  0  0  0  0  0  0  0  0  0  0  0
   34.9307   19.0709   34.9873 C   0  0  0  0  0  0  0  0  0  0  0  0
   39.7551   19.0011   35.3415 O   0  0  0  0  0  0  0  0  0  0  0  0
   32.8935   17.4728   37.7244 O   0  0  0  0  0  0  0  0  0  0  0  0
   36.5257   20.3969   33.8239 O   0  0  0  0  0  0  0  0  0  0  0  0
   31.5660   16.8758   37.4242 C   0  0  0  0  0  0  0  0  0  0  0  0
   37.1990   17.6176   36.4030 C   0  0  0  0  0  0  0  0  0  0  0  0
   35.7479   17.5014   36.7593 C   0  0  0  0  0  0  0  0  0  0  0  0
   33.3325   18.3723   36.7499 C   0  0  0  0  0  0  0  0  0  0  0  0
   37.4017   18.8647   35.5633 C   0  0  0  0  0  0  0  0  0  0  0  0
   38.5898   20.8310   35.9911 O   0  0  0  0  0  0  0  0  0  0  0  0
  1  5  1  0
  1  6  1  0
  1 12  1  0
  2  8  1  0
  2 14  1  0
  2 15  1  0
  3 14  1  0
  4  9  2  0
  4 16  1  0
  4 17  1  0
  5 15  1  0
  7  8  1  0
  7 11  1  0
  7 16  1  0
 10 12  1  0
 10 15  1  0
 13 14  1  0
 13 16  1  0
M  END
>  <ID>  (1) 
conformer_0

$$$$
