
     RDKit          3D

 23 23  0  0  0  0  0  0  0  0999 V2000
   38.3359   19.6737   35.2887 C   0  0  0  0  0  0  0  0  0  0  0  0
   38.6076   15.7254   36.1867 O   0  0  0  0  0  0  0  0  0  0  0  0
   37.0492   17.8288   36.1040 O   0  0  0  0  0  0  0  0  0  0  0  0
   37.1112   19.5155   34.3125 C   0  0  0  0  0  0  0  0  0  0  0  0
   37.3608   15.4608   36.7573 C   0  0  0  0  0  0  0  0  0  0  0  0
   34.8406   18.7300   35.4612 C   0  0  0  0  0  0  0  0  0  0  0  0
   31.3654   18.5107   35.0720 O   0  0  0  0  0  0  0  0  0  0  0  0
   32.8610   17.2885   36.2662 O   0  0  0  0  0  0  0  0  0  0  0  0
   34.4255   15.3543   36.9475 O   0  0  0  0  0  0  0  0  0  0  0  0
   35.0963   16.4306   36.2505 C   0  0  0  0  0  0  0  0  0  0  0  0
   34.2466   17.6930   36.4536 C   0  0  0  0  0  0  0  0  0  0  0  0
   30.5776   17.3857   37.0201 C   0  0  0  0  0  0  0  0  0  0  0  0
   39.1036   18.3979   37.2208 O   0  0  0  0  0  0  0  0  0  0  0  0
   36.4891   16.7293   36.8699 C   0  0  0  0  0  0  0  0  0  0  0  0
   30.5411   16.1086   36.9423 O   0  0  0  0  0  0  0  0  0  0  0  0
   31.7231   18.0555   36.3380 C   0  0  0  0  0  0  0  0  0  0  0  0
   38.2931   18.4267   36.1375 C   0  0  0  0  0  0  0  0  0  0  0  0
   37.7607   19.1527   33.0691 O   0  0  0  0  0  0  0  0  0  0  0  0
   36.2601   18.3675   34.9632 C   0  0  0  0  0  0  0  0  0  0  0  0
   34.1193   19.9578   35.7642 O   0  0  0  0  0  0  0  0  0  0  0  0
   29.7706   18.0894   37.6713 O   0  0  0  0  0  0  0  0  0  0  0  0
   36.1089   20.4869   33.8795 O   0  0  0  0  0  0  0  0  0  0  0  0
   38.3036   20.8175   36.0811 O   0  0  0  0  0  0  0  0  0  0  0  0
  1  4  1  0
  1 17  1  0
  1 23  1  0
  2  5  1  0
  3 14  1  0
  3 17  1  0
  4 18  1  0
  4 19  1  0
  4 22  1  0
  5 14  1  0
  6 11  1  0
  6 19  1  0
  6 20  1  0
  7 16  1  0
  8 11  1  0
  8 16  1  0
  9 10  1  0
 10 11  1  0
 10 14  1  0
 12 15  2  0
 12 16  1  0
 12 21  1  0
 13 17  2  0
M  END
>  <ID>  (1) 
conformer_0

$$$$
