
     RDKit          3D

 16 17  0  0  0  0  0  0  0  0999 V2000
   32.7229   18.0472   35.7530 C   0  0  0  0  0  0  0  0  0  0  0  0
   34.4735   19.9354   35.5252 O   0  0  0  0  0  0  0  0  0  0  0  0
   33.3620   19.3798   36.3014 C   0  0  0  0  0  0  0  0  0  0  0  0
   31.9834   18.3500   34.5588 O   0  0  0  0  0  0  0  0  0  0  0  0
   30.4022   17.5930   36.4984 O   0  0  0  0  0  0  0  0  0  0  0  0
   38.0798   18.6833   36.0019 C   0  0  0  0  0  0  0  0  0  0  0  0
   34.0426   17.2679   35.6208 O   0  0  0  0  0  0  0  0  0  0  0  0
   35.3638   17.8154   35.8532 C   0  0  0  0  0  0  0  0  0  0  0  0
   39.3491   19.1516   36.1769 O   0  0  0  0  0  0  0  0  0  0  0  0
   31.6505   16.9838   36.3594 C   0  0  0  0  0  0  0  0  0  0  0  0
   37.1954   19.3220   35.0323 C   0  0  0  0  0  0  0  0  0  0  0  0
   37.4819   20.6676   34.7540 O   0  0  0  0  0  0  0  0  0  0  0  0
   38.3582   16.9373   37.6970 O   0  0  0  0  0  0  0  0  0  0  0  0
   37.5472   17.9688   37.2064 C   0  0  0  0  0  0  0  0  0  0  0  0
   36.1177   17.5771   37.0896 N   0  0  0  0  0  0  0  0  0  0  0  0
   35.6649   19.1315   35.1602 C   0  0  0  0  0  0  0  0  0  0  0  0
  1  3  1  0
  1  4  1  0
  1  7  1  0
  1 10  1  0
  2  3  1  0
  2 16  1  0
  5 10  1  0
  6  9  1  0
  6 11  1  0
  6 14  1  0
  7  8  1  0
  8 15  1  0
  8 16  1  0
 11 12  1  0
 11 16  1  0
 13 14  1  0
 14 15  1  0
M  END
>  <ID>  (1) 
conformer_0

$$$$
