
     RDKit          3D

 27 29  0  0  0  0  0  0  0  0999 V2000
   33.7433   15.6092   38.3590 C   0  0  0  0  0  0  0  0  0  0  0  0
   31.6137   16.3425   37.5580 C   0  0  0  0  0  0  0  0  0  0  0  0
   31.9720   15.6138   39.9162 O   0  0  0  0  0  0  0  0  0  0  0  0
   37.3491   16.1099   35.2793 O   0  0  0  0  0  0  0  0  0  0  0  0
   33.4442   17.4854   36.4087 C   0  0  0  0  0  0  0  0  0  0  0  0
   29.4304   16.8003   36.8814 C   0  0  0  0  0  0  0  0  0  0  0  0
   34.3077   14.3549   38.2193 O   0  0  0  0  0  0  0  0  0  0  0  0
   32.4439   18.7730   36.3355 C   0  0  0  0  0  0  0  0  0  0  0  0
   37.4204   18.7561   36.0404 C   0  0  0  0  0  0  0  0  0  0  0  0
   33.2376   20.0697   36.2024 C   0  0  0  0  0  0  0  0  0  0  0  0
   32.3273   16.3674   36.2611 C   0  0  0  0  0  0  0  0  0  0  0  0
   39.1649   17.5495   33.1233 C   0  0  0  0  0  0  0  0  0  0  0  0
   37.6576   20.0816   36.5987 C   0  0  0  0  0  0  0  0  0  0  0  0
   38.2924   17.0244   34.3784 C   0  0  0  0  0  0  0  0  0  0  0  0
   36.3681   16.7179   36.0204 C   0  0  0  0  0  0  0  0  0  0  0  0
   38.7200   18.9286   32.9061 O   0  0  0  0  0  0  0  0  0  0  0  0
   31.7297   18.6142   35.1346 O   0  0  0  0  0  0  0  0  0  0  0  0
   37.2106   20.3199   37.7895 O   0  0  0  0  0  0  0  0  0  0  0  0
   32.2609   15.5629   38.5921 C   0  0  0  0  0  0  0  0  0  0  0  0
   34.6167   18.0688   35.5929 O   0  0  0  0  0  0  0  0  0  0  0  0
   36.0004   18.1449   36.1231 C   0  0  0  0  0  0  0  0  0  0  0  0
   30.5996   17.2302   37.7264 O   0  0  0  0  0  0  0  0  0  0  0  0
   35.4478   16.0003   36.7397 O   0  0  0  0  0  0  0  0  0  0  0  0
   34.3405   16.6645   37.4388 C   0  0  0  0  0  0  0  0  0  0  0  0
   38.5371   18.0667   35.4100 C   0  0  0  0  0  0  0  0  0  0  0  0
   38.1433   20.9816   35.8344 O   0  0  0  0  0  0  0  0  0  0  0  0
   39.7302   18.6081   35.5118 O   0  0  0  0  0  0  0  0  0  0  0  0
  1  7  1  0
  1 19  1  0
  1 24  1  0
  2 11  1  0
  2 19  1  0
  2 22  1  0
  3 19  1  0
  4 14  1  0
  4 15  1  0
  5  8  1  0
  5 11  1  0
  5 20  1  0
  5 24  1  0
  6 22  1  0
  8 10  1  0
  8 17  1  0
  9 13  1  0
  9 21  1  0
  9 25  1  0
 12 14  1  0
 12 16  1  0
 13 18  2  0
 13 26  1  0
 14 25  1  0
 15 21  1  0
 15 23  1  0
 20 21  1  0
 23 24  1  0
 25 27  1  0
M  END
>  <ID>  (1) 
conformer_0

$$$$
