
     RDKit          3D

 28 29  0  0  0  0  0  0  0  0999 V2000
   30.4473   18.4396   36.7316 O   0  0  0  0  0  0  0  0  0  0  0  0
   34.7999   16.5885   36.9985 N   0  0  0  0  0  0  0  0  0  0  0  0
   38.0493   18.7321   37.9979 O   0  0  0  0  0  0  0  0  0  0  0  0
   38.3142   20.9819   35.6530 O   0  0  0  0  0  1  0  0  0  0  0  0
   34.9814   13.0854   37.5202 C   0  0  0  0  0  0  0  0  0  0  0  0
   31.7714   16.3535   37.8478 O   0  0  0  0  0  0  0  0  0  0  0  0
   33.1058   18.4672   36.6587 C   0  0  0  0  0  0  0  0  0  0  0  0
   33.8128   17.2148   36.1241 C   0  0  0  0  0  0  0  0  0  0  0  0
   34.5186   15.4635   37.6855 O   0  0  0  0  0  0  0  0  0  0  0  0
   37.1178   14.3965   37.5332 C   0  0  0  0  0  0  0  0  0  0  0  0
   37.7262   16.6205   36.8018 C   0  0  0  0  0  0  0  0  0  0  0  0
   35.7610   14.5645   39.4497 O   0  0  0  0  0  0  0  0  0  0  0  0
   36.0466   17.9692   35.5753 C   0  0  0  0  0  0  0  0  0  0  0  0
   31.6550   16.9541   35.3508 C   0  0  0  0  0  0  0  0  0  0  0  0
   37.8308   15.6704   38.0144 C   0  0  0  0  0  0  0  0  0  0  0  0
   31.6226   18.3744   36.1323 C   0  0  0  0  0  0  0  0  0  0  0  0
   38.5162   15.9767   35.7582 O   0  0  0  0  0  0  0  0  0  0  0  0
   31.4532   15.9868   36.5154 C   0  0  0  0  0  0  0  0  0  0  0  0
   38.7742   19.3541   33.8190 O   0  0  0  0  0  0  0  0  0  0  0  0
   35.6175   14.4509   37.9895 C   0  0  0  0  0  0  0  0  0  0  0  0
   38.2015   18.0994   36.7285 C   0  0  0  0  0  0  0  0  0  0  0  0
   33.6856   19.6539   35.9560 O   0  0  0  0  0  0  0  0  0  0  0  0
   31.5432   17.4953   34.0048 O   0  0  0  0  0  0  0  0  0  0  0  0
   36.1878   16.7442   36.5054 C   0  0  0  0  0  0  0  0  0  0  0  0
   36.6018   20.5100   33.9022 O   0  0  0  0  0  0  0  0  0  0  0  0
   37.7436   19.9512   34.7474 P   0  0  0  0  0  4  0  0  0  0  0  0
   37.3015   18.7539   35.7155 C   0  0  0  0  0  0  0  0  0  0  0  0
   38.9707   15.7734   38.6768 O   0  0  0  0  0  0  0  0  0  0  0  0
  1 16  1  0
  2  8  1  0
  2  9  1  0
  2 24  1  0
  3 21  1  0
  4 26  2  0
  5 20  1  0
  6 18  1  0
  7  8  1  0
  7 16  1  0
  7 22  1  0
  9 20  1  0
 10 15  1  0
 10 20  1  0
 11 15  1  0
 11 17  1  0
 11 21  1  0
 11 24  1  0
 12 20  1  0
 13 24  1  0
 13 27  1  0
 14 16  1  0
 14 18  1  0
 14 23  1  0
 15 28  1  0
 19 26  1  0
 21 27  1  0
 25 26  1  0
 26 27  1  0
M  END
>  <ID>  (1) 
conformer_0

$$$$
