
     RDKit          3D

 16 15  0  0  0  0  0  0  0  0999 V2000
   32.9478   16.7000   37.9027 O   0  0  0  0  0  0  0  0  0  0  0  0
   33.9020   18.3951   35.9725 C   0  0  0  0  0  0  0  0  0  0  0  0
   31.6365   18.4586   36.9751 C   0  0  0  0  0  0  0  0  0  0  0  0
   37.5931   19.5139   35.4455 C   0  0  0  0  0  0  0  0  0  0  0  0
   38.0962   18.2707   36.2252 C   0  0  0  0  0  0  0  0  0  0  0  0
   33.2529   19.3913   35.2857 O   0  0  0  0  0  0  0  0  0  0  0  0
   30.9764   18.1804   35.8125 O   0  0  0  0  0  0  0  0  0  0  0  0
   35.4093   15.6054   37.0011 O   0  0  0  0  0  0  0  0  0  0  0  0
   38.0212   16.8774   38.3777 C   0  0  0  0  0  0  0  0  0  0  0  0
   38.0853   20.6251   35.7737 O   0  0  0  0  0  0  0  0  0  0  0  0
   35.8704   17.0631   37.0420 C   0  0  0  0  0  0  0  0  0  0  0  0
   33.0039   17.8113   37.0530 C   0  0  0  0  0  0  0  0  0  0  0  0
   37.4796   16.9588   36.8967 C   0  0  0  0  0  0  0  0  0  0  0  0
   36.7594   19.3923   34.4764 O   0  0  0  0  0  0  0  0  0  0  0  0
   35.3624   18.4831   36.5400 C   0  0  0  0  0  0  0  0  0  0  0  0
   39.3815   17.8692   35.6917 O   0  0  0  0  0  0  0  0  0  0  0  0
  1 12  1  0
  2  6  1  0
  2 12  1  0
  2 15  1  0
  3  7  1  0
  3 12  1  0
  4  5  1  0
  4 10  2  0
  4 14  1  0
  5 13  1  0
  5 16  1  0
  8 11  1  0
  9 13  1  0
 11 13  1  0
 11 15  1  0
M  END
>  <ID>  (1) 
conformer_0

$$$$
