
     RDKit          3D

 27 28  0  0  0  0  0  0  0  0999 V2000
   31.7196   18.4528   36.9631 C   0  0  0  0  0  0  0  0  0  0  0  0
   37.2425   15.1166   35.6072 C   0  0  0  0  0  0  0  0  0  0  0  0
   35.3737   13.7055   36.5070 C   0  0  0  0  0  0  0  0  0  0  0  0
   36.4124   14.0880   35.8431 O   0  0  0  0  0  0  0  0  0  0  0  0
   40.0631   19.0764   35.4519 O   0  0  0  0  0  1  0  0  0  0  0  0
   32.0065   15.8552   37.0635 C   0  0  0  0  0  0  0  0  0  0  0  0
   35.5098   18.6917   35.4823 C   0  0  0  0  0  0  0  0  0  0  0  0
   30.3719   18.3225   37.2016 O   0  0  0  0  0  0  0  0  0  0  0  0
   35.8985   17.3040   35.4812 C   0  0  0  0  0  0  0  0  0  0  0  0
   35.5959   19.5727   34.3886 O   0  0  0  0  0  0  0  0  0  0  0  0
   33.8053   17.4347   36.7754 C   0  0  0  0  0  0  0  0  0  0  0  0
   38.6370   18.8429   36.0685 P   0  0  0  0  0  4  0  0  0  0  0  0
   39.3149   16.1879   35.2923 O   0  0  0  0  0  0  0  0  0  0  0  0
   34.3382   16.1219   37.1529 O   0  0  0  0  0  0  0  0  0  0  0  0
   33.3038   15.1601   37.3267 C   0  0  0  0  0  0  0  0  0  0  0  0
   30.9210   15.7811   37.8472 O   0  0  0  0  0  0  0  0  0  0  0  0
   38.2822   17.1377   35.5488 C   0  0  0  0  0  0  0  0  0  0  0  0
   32.3292   17.1731   36.4421 C   0  0  0  0  0  0  0  0  0  0  0  0
   33.2732   14.2865   38.4948 S   0  0  0  0  0  0  0  0  0  0  0  0
   37.0466   16.5107   35.6280 C   0  0  0  0  0  0  0  0  0  0  0  0
   38.5964   14.8811   35.3520 C   0  0  0  0  0  0  0  0  0  0  0  0
   33.6546   20.1104   36.0391 O   0  0  0  0  0  0  0  0  0  0  0  0
   38.0070   20.3050   35.7881 O   0  0  0  0  0  0  0  0  0  0  0  0
   32.2474   17.0870   35.0493 O   0  0  0  0  0  0  0  0  0  0  0  0
   35.4488   12.8481   37.5772 O   0  0  0  0  0  0  0  0  0  0  0  0
   38.3252   18.6943   37.6348 O   0  0  0  0  0  0  0  0  0  0  0  0
   34.1312   18.8119   36.1250 C   0  0  0  0  0  0  0  0  0  0  0  0
  1  8  1  0
  1 18  1  0
  2  4  1  0
  2 20  1  0
  2 21  1  0
  3  4  1  0
  3 25  1  0
  5 12  2  0
  6 15  1  0
  6 16  1  0
  6 18  1  0
  7  9  1  0
  7 10  1  0
  7 27  1  0
  9 20  2  3
 11 14  1  0
 11 18  1  0
 11 27  1  0
 12 17  1  0
 12 23  1  0
 12 26  1  0
 13 17  1  0
 13 21  1  0
 14 15  1  0
 15 19  1  0
 17 20  1  0
 18 24  1  0
 22 27  1  0
M  END
>  <ID>  (1) 
conformer_0

$$$$
