
     RDKit          3D

 17 18  0  0  0  0  0  0  0  0999 V2000
   36.4746   17.6107   37.1550 C   0  0  0  0  0  0  0  0  0  0  0  0
   34.1347   15.0321   35.4870 O   0  0  0  0  0  0  0  0  0  0  0  0
   32.1147   18.2508   36.0468 C   0  0  0  0  0  0  0  0  0  0  0  0
   31.7525   18.4496   34.6976 O   0  0  0  0  0  0  0  0  0  0  0  0
   35.0568   17.4188   36.2837 C   0  0  0  0  0  0  0  0  0  0  0  0
   38.0599   20.4648   35.8782 O   0  0  0  0  0  0  0  0  0  0  0  0
   37.8391   19.1927   34.0346 O   0  0  0  0  0  0  0  0  0  0  0  0
   31.6606   15.6856   36.1775 O   0  0  0  0  0  0  0  0  0  0  0  0
   37.6329   18.0650   36.1558 C   0  0  0  0  0  0  0  0  0  0  0  0
   33.9682   16.3995   35.8435 C   0  0  0  0  0  0  0  0  0  0  0  0
   33.2936   19.3141   36.3320 C   0  0  0  0  0  0  0  0  0  0  0  0
   31.0765   18.5499   36.9370 O   0  0  0  0  0  0  0  0  0  0  0  0
   38.2155   19.2937   35.3155 C   0  0  0  0  0  0  0  0  0  0  0  0
   32.5045   16.7390   36.2280 C   0  0  0  0  0  0  0  0  0  0  0  0
   34.7531   18.9009   35.7984 C   0  0  0  0  0  0  0  0  0  0  0  0
   39.0286   17.5353   36.6439 C   0  0  0  0  0  0  0  0  0  0  0  0
   39.7046   18.6272   35.6624 C   0  0  0  0  0  0  0  0  0  0  0  0
  1  5  1  0
  1  9  1  0
  2 10  1  0
  3  4  1  0
  3 11  1  0
  3 12  1  0
  3 14  1  0
  5 10  1  0
  5 15  1  0
  6 13  1  0
  7 13  1  0
  8 14  1  0
  9 13  1  0
  9 16  1  0
 10 14  1  0
 11 15  1  0
 13 17  1  0
 16 17  1  0
M  END
>  <ID>  (1) 
conformer_0

$$$$
