
     RDKit          3D

 19 19  0  0  0  0  0  0  0  0999 V2000
   36.8542   17.3046   36.0900 C   0  0  0  0  0  0  0  0  0  0  0  0
   36.8377   18.6649   35.3957 C   0  0  0  0  0  0  0  0  0  0  0  0
   35.4117   19.0387   35.2975 O   0  0  0  0  0  0  0  0  0  0  0  0
   33.4657   18.4172   37.0949 O   0  0  0  0  0  0  0  0  0  0  0  0
   38.2032   20.5449   35.8124 O   0  0  0  0  0  0  0  0  0  0  0  0
   37.8118   15.1656   35.7673 O   0  0  0  0  0  0  0  0  0  0  0  0
   31.5209   18.0460   34.2536 O   0  0  0  0  0  0  0  0  0  0  0  0
   38.9288   16.5914   37.3368 C   0  0  0  0  0  0  0  0  0  0  0  0
   37.6991   19.7982   34.9438 C   0  0  0  0  0  0  0  0  0  0  0  0
   30.9212   17.7434   36.3966 O   0  0  0  0  0  0  0  0  0  0  0  0
   35.4520   16.9344   38.0735 O   0  0  0  0  0  0  0  0  0  0  0  0
   37.8308   19.9113   33.6651 O   0  0  0  0  0  0  0  0  0  0  0  0
   35.4604   17.1175   36.6752 C   0  0  0  0  0  0  0  0  0  0  0  0
   31.6763   18.2776   35.5002 C   0  0  0  0  0  0  0  0  0  0  0  0
   34.6300   18.4092   36.3634 C   0  0  0  0  0  0  0  0  0  0  0  0
   38.1450   16.5190   36.0437 C   0  0  0  0  0  0  0  0  0  0  0  0
   32.9304   18.9662   35.8737 C   0  0  0  0  0  0  0  0  0  0  0  0
   33.2467   20.3132   35.8503 O   0  0  0  0  0  0  0  0  0  0  0  0
   39.0143   17.0449   34.9097 C   0  0  0  0  0  0  0  0  0  0  0  0
  1  2  1  0
  1 13  1  0
  1 16  1  0
  2  3  1  0
  2  9  1  0
  3 15  1  0
  4 15  1  0
  4 17  1  0
  5  9  2  0
  6 16  1  0
  7 14  2  0
  8 16  1  0
  9 12  1  0
 10 14  1  0
 11 13  1  0
 13 15  1  0
 14 17  1  0
 16 19  1  0
 17 18  2  0
M  END
>  <ID>  (1) 
conformer_0

$$$$
