
     RDKit          3D

 21 21  0  0  0  0  0  0  0  0999 V2000
   32.1912   15.7637   37.9831 O   0  0  0  0  0  0  0  0  0  0  0  0
   39.6472   16.5042   36.5366 N   0  0  0  0  0  0  0  0  0  0  0  0
   36.3187   19.2138   34.4559 C   0  0  0  0  0  0  0  0  0  0  0  0
   30.4234   18.1188   37.6705 O   0  0  0  0  0  0  0  0  0  0  0  0
   30.0824   17.1629   35.2951 O   0  0  0  0  0  0  0  0  0  0  0  0
   37.5748   19.3931   35.2309 C   0  0  0  0  0  0  0  0  0  0  0  0
   40.3704   15.9600   37.5452 O   0  0  0  0  0  0  0  0  0  0  0  0
   33.9536   18.2517   35.8170 C   0  0  0  0  0  0  0  0  0  0  0  0
   32.5925   16.9991   37.5167 C   0  0  0  0  0  0  0  0  0  0  0  0
   33.6929   16.8318   36.3903 C   0  0  0  0  0  0  0  0  0  0  0  0
   31.3488   17.7308   35.4267 C   0  0  0  0  0  0  0  0  0  0  0  0
   34.1402   20.7123   35.6252 O   0  0  0  0  0  0  0  0  0  0  0  0
   35.2596   18.4553   35.1895 N   0  0  0  0  0  0  0  0  0  0  0  0
   33.3466   19.6336   36.1401 C   0  0  0  0  0  0  0  0  0  0  0  0
   37.9985   20.5450   35.7148 O   0  0  0  0  0  0  0  0  0  0  0  0
   31.5306   17.9604   36.9378 C   0  0  0  0  0  0  0  0  0  0  0  0
   38.2297   18.1745   35.6616 C   0  0  0  0  0  0  0  0  0  0  0  0
   34.8969   16.1945   36.8658 O   0  0  0  0  0  0  0  0  0  0  0  0
   38.2081   16.9489   34.7377 C   0  0  0  0  0  0  0  0  0  0  0  0
   38.7702   15.8139   35.6156 C   0  0  0  0  0  0  0  0  0  0  0  0
   39.3064   17.9074   36.6906 C   0  0  0  0  0  0  0  0  0  0  0  0
  1  9  1  0
  2  7  1  0
  2 20  1  0
  2 21  1  0
  3  6  1  0
  3 13  1  0
  4 16  1  0
  5 11  1  0
  6 15  1  0
  6 17  1  0
  8 10  1  0
  8 13  1  0
  8 14  1  0
  9 10  1  0
  9 16  1  0
 10 18  1  0
 11 16  1  0
 12 14  1  0
 17 19  1  0
 17 21  1  0
 19 20  1  0
M  END
>  <ID>  (1) 
conformer_0

$$$$
