
     RDKit          3D

 19 19  0  0  0  0  0  0  0  0999 V2000
   35.3547   15.6700   36.0924 O   0  0  0  0  0  0  0  0  0  0  0  0
   36.9894   20.0726   35.0412 C   0  0  0  0  0  0  0  0  0  0  0  0
   35.1069   16.9850   36.3996 C   0  0  0  0  0  0  0  0  0  0  0  0
   33.9691   17.6234   37.1508 C   0  0  0  0  0  0  0  0  0  0  0  0
   31.0585   18.5167   36.9925 O   0  0  0  0  0  0  0  0  0  0  0  0
   37.9626   20.5858   35.7227 O   0  0  0  0  0  0  0  0  0  0  0  0
   32.9986   16.8041   37.6937 O   0  0  0  0  0  0  0  0  0  0  0  0
   37.8635   18.2322   36.8745 C   0  0  0  0  0  0  0  0  0  0  0  0
   35.9070   19.1121   35.4758 C   0  0  0  0  0  0  0  0  0  0  0  0
   39.3910   17.9595   37.0634 C   0  0  0  0  0  0  0  0  0  0  0  0
   33.3771   18.8010   36.2879 C   0  0  0  0  0  0  0  0  0  0  0  0
   31.5164   18.7127   34.8473 O   0  0  0  0  0  0  0  0  0  0  0  0
   36.6985   20.6880   33.9055 O   0  0  0  0  0  0  0  0  0  0  0  0
   39.7736   17.7991   38.2347 O   0  0  0  0  0  0  0  0  0  0  0  0
   37.2843   16.9273   37.2040 N   0  0  0  0  0  0  0  0  0  0  0  0
   31.8699   18.5514   36.0466 C   0  0  0  0  0  0  0  0  0  0  0  0
   39.9970   17.6415   36.0317 O   0  0  0  0  0  0  0  0  0  0  0  0
   34.4467   19.0562   35.2009 N   0  0  0  0  0  0  0  0  0  0  0  0
   36.3880   17.8692   36.3318 C   0  0  0  0  0  0  0  0  0  0  0  0
  1  3  1  0
  2  6  2  0
  2  9  1  0
  2 13  1  0
  3  4  1  0
  3 19  1  0
  4  7  1  0
  4 11  1  0
  5 16  2  0
  8 10  1  0
  8 15  1  0
  8 19  1  0
  9 18  1  0
  9 19  1  0
 10 14  2  0
 10 17  1  0
 11 16  1  0
 11 18  1  0
 12 16  1  0
M  END
>  <ID>  (1) 
conformer_0

$$$$
