
     RDKit          3D

 19 20  0  0  0  0  0  0  0  0999 V2000
   31.4340   18.6434   35.0575 O   0  0  0  0  0  0  0  0  0  0  0  0
   37.7667   19.5632   32.5496 O   0  0  0  0  0  0  0  0  0  0  0  0
   37.8745   17.9019   36.6620 C   0  0  0  0  0  0  0  0  0  0  0  0
   38.1809   18.2592   35.1839 C   0  0  0  0  0  0  0  0  0  0  0  0
   39.9797   18.1910   37.5681 O   0  0  0  0  0  0  0  0  0  0  0  0
   32.7430   17.2086   36.4921 C   0  0  0  0  0  0  0  0  0  0  0  0
   39.0475   16.1406   37.5170 O   0  0  0  0  0  0  0  0  0  0  0  0
   31.4822   18.0130   36.1452 C   0  0  0  0  0  0  0  0  0  0  0  0
   35.8301   18.4284   35.4315 C   0  0  0  0  0  0  0  0  0  0  0  0
   39.0249   17.3803   37.3873 C   0  0  0  0  0  0  0  0  0  0  0  0
   34.4655   19.0007   35.9068 C   0  0  0  0  0  0  0  0  0  0  0  0
   33.1872   16.4748   35.3703 O   0  0  0  0  0  0  0  0  0  0  0  0
   37.4455   20.4674   35.4570 O   0  0  0  0  0  0  0  0  0  0  0  0
   37.0052   19.2683   34.8382 C   0  0  0  0  0  0  0  0  0  0  0  0
   33.8955   18.1012   37.0433 C   0  0  0  0  0  0  0  0  0  0  0  0
   35.1095   17.3129   37.3812 O   0  0  0  0  0  0  0  0  0  0  0  0
   36.3496   17.8491   36.7995 C   0  0  0  0  0  0  0  0  0  0  0  0
   36.5685   19.7137   33.3601 C   0  0  0  0  0  0  0  0  0  0  0  0
   30.5806   18.1068   37.0185 O   0  0  0  0  0  0  0  0  0  0  0  0
  1  8  2  0
  2 18  1  0
  3  4  1  0
  3 10  1  0
  3 17  1  0
  4 14  1  0
  5 10  2  0
  6  8  1  0
  6 12  1  0
  6 15  1  0
  7 10  1  0
  8 19  1  0
  9 11  1  0
  9 14  1  0
  9 17  1  0
 11 15  1  0
 13 14  1  0
 14 18  1  0
 15 16  1  0
 16 17  1  0
M  END
>  <ID>  (1) 
conformer_0

$$$$
