
     RDKit          3D

 10  9  0  0  0  0  0  0  0  0999 V2000
   32.3282   18.4307   36.3671 C   0  0  0  0  0  0  0  0  0  0  0  0
   33.4801   20.5162   36.0139 O   0  0  0  0  0  0  0  0  0  0  0  0
   37.2141   18.5312   34.3601 C   0  0  0  0  0  0  0  0  0  0  0  0
   35.9913   19.3208   36.5406 O   0  0  0  0  0  0  0  0  0  0  0  0
   37.9833   20.6181   35.7816 O   0  0  0  0  0  1  0  0  0  0  0  0
   38.2909   18.3701   36.7693 O   0  0  0  0  0  0  0  0  0  0  0  0
   34.8396   18.5408   36.1011 C   0  0  0  0  0  0  0  0  0  0  0  0
   37.4410   19.2747   35.9069 P   0  0  0  0  0  4  0  0  0  0  0  0
   32.0218   18.2673   34.9499 N   0  0  0  0  0  0  0  0  0  0  0  0
   33.5625   19.2286   36.5131 C   0  0  0  0  0  0  0  0  0  0  0  0
  1  9  1  0
  1 10  1  0
  2 10  1  0
  3  8  1  0
  4  7  1  0
  4  8  1  0
  5  8  2  0
  6  8  1  0
  7 10  1  0
M  END
>  <ID>  (1) 
conformer_0

$$$$
