
     RDKit          3D

 30 31  0  0  0  0  0  0  0  0999 V2000
   36.4110   17.5524   35.5274 C   0  0  0  0  0  0  0  0  0  0  0  0
   38.2544   18.7867   33.1777 N   0  0  0  0  0  0  0  0  0  0  0  0
   37.8803   17.7251   38.7265 O   0  0  0  0  0  0  0  0  0  0  0  0
   37.2554   19.5517   34.1845 P   0  0  0  0  0  0  0  0  0  0  0  0
   30.5427   17.2601   38.1112 C   0  0  0  0  0  0  0  0  0  0  0  0
   38.7785   17.4419   40.6775 O   0  0  0  0  0  0  0  0  0  0  0  0
   36.4588   20.5838   33.2590 N   0  0  0  0  0  0  0  0  0  0  0  0
   30.6009   18.1730   37.0704 N   0  0  0  0  0  0  0  0  0  0  0  0
   34.0118   16.0957   38.0306 C   0  0  0  0  0  0  0  0  0  0  0  0
   38.9234   17.4521   39.4428 C   0  0  0  0  0  0  0  0  0  0  0  0
   35.1834   17.2631   36.3189 C   0  0  0  0  0  0  0  0  0  0  0  0
   36.0779   18.6185   34.5854 C   0  0  0  0  0  0  0  0  0  0  0  0
   40.1723   17.6505   37.2664 C   0  0  0  0  0  0  0  0  0  0  0  0
   32.9062   17.7402   36.7086 C   0  0  0  0  0  0  0  0  0  0  0  0
   39.8140   16.5602   36.3645 C   0  0  0  0  0  0  0  0  0  0  0  0
   32.8497   16.8170   37.7453 C   0  0  0  0  0  0  0  0  0  0  0  0
   34.0289   17.9731   36.0322 C   0  0  0  0  0  0  0  0  0  0  0  0
   35.7471   20.0397   32.2788 N   0  0  0  0  0  0  0  0  0  0  0  0
   37.8414   20.2411   35.2205 O   0  0  0  0  0  0  0  0  0  0  0  0
   37.4872   16.6756   35.3452 N   0  0  0  0  0  0  0  0  0  0  0  0
   40.2059   17.5292   38.7320 C   0  0  0  0  0  0  0  0  0  0  0  0
   39.2139   17.6052   32.8781 C   0  0  0  0  0  0  0  0  0  0  0  0
   39.3441   16.4194   33.7854 C   0  0  0  0  0  0  0  0  0  0  0  0
   31.7388   18.4163   36.4074 C   0  0  0  0  0  0  0  0  0  0  0  0
   38.9858   15.2045   33.1763 O   0  0  0  0  0  0  0  0  0  0  0  0
   38.9103   16.6524   35.1450 C   0  0  0  0  0  0  0  0  0  0  0  0
   31.7082   16.6379   38.4210 C   0  0  0  0  0  0  0  0  0  0  0  0
   29.4139   17.0423   38.7044 O   0  0  0  0  0  0  0  0  0  0  0  0
   35.1460   16.2949   37.3145 C   0  0  0  0  0  0  0  0  0  0  0  0
   40.4627   18.8450   36.7325 O   0  0  0  0  0  0  0  0  0  0  0  0
  1 11  1  0
  1 12  1  0
  1 20  1  0
  2 22  1  0
  3 10  2  0
  4  7  1  0
  4 12  1  0
  4 19  1  0
  5  8  1  0
  5 27  1  0
  5 28  2  0
  6 10  1  0
  7 18  1  0
  8 24  2  0
  9 16  1  0
  9 29  2  0
 10 21  1  0
 11 17  1  0
 11 29  1  0
 13 15  1  0
 13 21  1  0
 13 30  1  0
 14 16  1  0
 14 17  2  0
 14 24  1  0
 15 26  1  0
 16 27  2  0
 20 26  1  0
 22 23  1  0
 23 25  1  0
 23 26  1  0
M  END
>  <ID>  (1) 
conformer_0

$$$$
