
     RDKit          3D

 42 48  0  0  0  0  0  0  0  0999 V2000
   31.1210   16.2642   36.5811 N   0  0  0  0  0  0  0  0  0  0  0  0
   36.9691   18.5347   36.8782 O   0  0  0  0  0  0  0  0  0  0  0  0
   35.3852   13.9334   36.5348 N   0  0  0  0  0  0  0  0  0  0  0  0
   39.2731   16.9684   36.3832 C   0  0  0  0  0  0  0  0  0  0  0  0
   40.2063   17.8730   34.2892 O   0  0  0  0  0  0  0  0  0  0  0  0
   34.1162   14.1421   36.7908 C   0  0  0  0  0  0  0  0  0  0  0  0
   37.4779   20.7082   35.3309 O   0  0  0  0  0  0  0  0  0  0  0  0
   36.6421   13.6613   36.2729 C   0  0  0  0  0  0  0  0  0  0  0  0
   37.8947   15.0640   37.8204 C   0  0  0  0  0  0  0  0  0  0  0  0
   31.4280   17.4633   37.1465 C   0  0  0  0  0  0  0  0  0  0  0  0
   38.1292   17.1589   38.5638 C   0  0  0  0  0  0  0  0  0  0  0  0
   38.5279   13.8047   34.6904 C   0  0  0  0  0  0  0  0  0  0  0  0
   38.1436   18.7989   34.1441 C   0  0  0  0  0  0  0  0  0  0  0  0
   40.0195   15.9130   35.6875 O   0  0  0  0  0  0  0  0  0  0  0  0
   31.4108   13.8837   37.1157 C   0  0  0  0  0  0  0  0  0  0  0  0
   33.5814   13.3732   37.8688 C   0  0  0  0  0  0  0  0  0  0  0  0
   39.3848   15.7462   33.3177 C   0  0  0  0  0  0  0  0  0  0  0  0
   38.4791   19.3984   32.8661 O   0  0  0  0  0  0  0  0  0  0  0  0
   31.6957   18.5726   34.9978 O   0  0  0  0  0  0  0  0  0  0  0  0
   33.3108   15.0298   36.1766 C   0  0  0  0  0  0  0  0  0  0  0  0
   37.0259   13.1843   34.8806 C   0  0  0  0  0  0  0  0  0  0  0  0
   33.5546   20.5627   36.2068 O   0  0  0  0  0  0  0  0  0  0  0  0
   39.7971   17.2145   33.0014 C   0  0  0  0  0  0  0  0  0  0  0  0
   33.5720   19.1883   36.4058 C   0  0  0  0  0  0  0  0  0  0  0  0
   36.0937   18.6590   35.7080 C   0  0  0  0  0  0  0  0  0  0  0  0
   37.7030   14.0011   37.0639 N   0  0  0  0  0  0  0  0  0  0  0  0
   30.9112   17.7452   38.3739 O   0  0  0  0  0  0  0  0  0  0  0  0
   34.6405   18.6039   35.5884 N   0  0  0  0  0  0  0  0  0  0  0  0
   32.1498   18.5726   36.3530 C   0  0  0  0  0  0  0  0  0  0  0  0
   37.6553   16.3729   39.6280 C   0  0  0  0  0  0  0  0  0  0  0  0
   39.3611   15.0983   34.7172 C   0  0  0  0  0  0  0  0  0  0  0  0
   36.8863   19.5840   34.6544 C   0  0  0  0  0  0  0  0  0  0  0  0
   36.4739   14.2536   39.7414 C   0  0  0  0  0  0  0  0  0  0  0  0
   37.8367   18.5166   38.0849 C   0  0  0  0  0  0  0  0  0  0  0  0
   39.0590   18.0430   35.2300 C   0  0  0  0  0  0  0  0  0  0  0  0
   35.4059   13.5121   39.6060 C   0  0  0  0  0  0  0  0  0  0  0  0
   38.4642   16.3200   37.5367 N   0  0  0  0  0  0  0  0  0  0  0  0
   34.3700   13.1090   38.9577 C   0  0  0  0  0  0  0  0  0  0  0  0
   35.9051   19.7527   33.6303 O   0  0  0  0  0  0  0  0  0  0  0  0
   37.3316   15.1150   39.1350 C   0  0  0  0  0  0  0  0  0  0  0  0
   31.9514   15.0852   36.5522 C   0  0  0  0  0  0  0  0  0  0  0  0
   32.2796   13.0523   37.7956 C   0  0  0  0  0  0  0  0  0  0  0  0
  1 10  1  0
  1 41  1  0
  2 25  1  0
  2 34  1  0
  3  6  1  0
  3  8  2  0
  4 14  1  0
  4 35  1  0
  4 37  1  0
  5 23  1  0
  5 35  1  0
  6 16  1  0
  6 20  2  0
  7 32  1  0
  8 21  1  0
  8 26  1  0
  9 26  1  0
  9 37  1  0
  9 40  2  0
 10 27  2  0
 10 29  1  0
 11 30  1  0
 11 34  1  0
 11 37  1  0
 12 21  1  0
 12 31  1  0
 13 18  1  0
 13 32  1  0
 13 35  1  0
 14 31  1  0
 15 41  1  0
 15 42  2  0
 16 38  1  0
 16 42  1  0
 17 23  1  0
 17 31  2  0
 19 29  1  0
 20 41  1  0
 22 24  1  0
 24 28  1  0
 24 29  1  0
 25 28  1  0
 25 32  1  0
 30 40  1  0
 32 39  1  0
 33 36  1  0
 33 40  1  0
 36 38  2  0
M  END
>  <ID>  (1) 
conformer_0

$$$$
