
     RDKit          3D

 26 28  0  0  0  0  0  0  0  0999 V2000
   37.8303   18.0727   37.9188 C   0  0  0  0  0  0  0  0  0  0  0  0
   39.1945   18.6814   34.3055 O   0  0  0  0  0  0  0  0  0  0  0  0
   29.3520   18.0111   37.5463 O   0  0  0  0  0  0  0  0  0  0  0  0
   30.2216   15.1803   37.4459 O   0  0  0  0  0  0  0  0  0  0  0  0
   34.0919   16.2872   36.2117 N   0  0  0  0  0  0  0  0  0  0  0  0
   38.6996   18.2457   36.8414 C   0  0  0  0  0  0  0  0  0  0  0  0
   38.3564   19.0848   35.5062 C   0  0  0  0  0  0  0  0  0  0  0  0
   31.1284   17.0954   36.1160 C   0  0  0  0  0  0  0  0  0  0  0  0
   39.9771   17.7654   36.9569 C   0  0  0  0  0  0  0  0  0  0  0  0
   38.4550   20.4594   35.8165 O   0  0  0  0  0  0  0  0  0  0  0  0
   40.3844   17.1440   38.1031 N   0  0  0  0  0  0  0  0  0  0  0  0
   32.4770   19.4846   35.9469 O   0  0  0  0  0  0  0  0  0  0  0  0
   30.3582   15.7903   36.1502 C   0  0  0  0  0  0  0  0  0  0  0  0
   30.7215   17.8765   37.3698 C   0  0  0  0  0  0  0  0  0  0  0  0
   36.4043   17.3280   35.1013 C   0  0  0  0  0  0  0  0  0  0  0  0
   34.6115   18.5230   35.9023 C   0  0  0  0  0  0  0  0  0  0  0  0
   36.7794   18.7746   35.1184 C   0  0  0  0  0  0  0  0  0  0  0  0
   35.7689   19.2942   36.1675 O   0  0  0  0  0  0  0  0  0  0  0  0
   39.5316   17.0189   39.1595 C   0  0  0  0  0  0  0  0  0  0  0  0
   37.0890   16.2701   34.8890 O   0  0  0  0  0  0  0  0  0  0  0  0
   33.2071   18.4208   36.4717 C   0  0  0  0  0  0  0  0  0  0  0  0
   38.2254   17.4727   39.0716 C   0  0  0  0  0  0  0  0  0  0  0  0
   32.7175   16.9708   36.1861 C   0  0  0  0  0  0  0  0  0  0  0  0
   36.3216   19.6342   33.8502 C   0  0  0  0  0  0  0  0  0  0  0  0
   35.1027   17.1963   35.6232 N   0  0  0  0  0  0  0  0  0  0  0  0
   30.8662   17.7202   34.8491 O   0  0  0  0  0  0  0  0  0  0  0  0
  1  6  2  0
  1 22  1  0
  2  7  1  0
  3 14  1  0
  4 13  1  0
  5 23  1  0
  5 25  1  0
  6  7  1  0
  6  9  1  0
  7 10  1  0
  7 17  1  0
  8 13  1  0
  8 14  1  0
  8 23  1  0
  8 26  1  0
  9 11  2  0
 11 19  1  0
 12 21  1  0
 15 17  1  0
 15 20  2  0
 15 25  1  0
 16 18  1  0
 16 21  1  0
 16 25  1  0
 17 18  1  0
 17 24  1  0
 19 22  2  0
 21 23  1  0
M  END
>  <ID>  (1) 
conformer_0

$$$$
