
     RDKit          3D

 28 30  0  0  0  0  0  0  0  0999 V2000
   37.3239   19.3734   33.9630 C   0  0  0  0  0  0  0  0  0  0  0  0
   30.3861   17.2715   38.1602 C   0  0  0  0  0  0  0  0  0  0  0  0
   39.9636   17.2862   38.8663 C   0  0  0  0  0  0  0  0  0  0  0  0
   35.0720   19.9597   34.7104 O   0  0  0  0  0  0  0  0  0  0  0  0
   29.4213   15.0449   38.1967 C   0  0  0  0  0  0  0  0  0  0  0  0
   36.3733   18.4435   35.9980 C   0  0  0  0  0  0  0  0  0  0  0  0
   35.7946   17.2915   36.5794 O   0  0  0  0  0  0  0  0  0  0  0  0
   38.3668   18.6652   34.8110 C   0  0  0  0  0  0  0  0  0  0  0  0
   37.8501   18.6167   36.2077 C   0  0  0  0  0  0  0  0  0  0  0  0
   39.6652   18.9164   34.6594 O   0  0  0  0  0  0  0  0  0  0  0  0
   37.4525   20.7881   34.2087 O   0  0  0  0  0  0  0  0  0  0  0  0
   32.5546   16.2663   37.9116 N   0  0  0  0  0  0  0  0  0  0  0  0
   30.8753   14.6797   38.6818 C   0  0  0  0  0  0  0  0  0  0  0  0
   34.3617   17.4735   36.7324 C   0  0  0  0  0  0  0  0  0  0  0  0
   33.8028   17.8395   35.4687 O   0  0  0  0  0  0  0  0  0  0  0  0
   29.9484   18.5115   37.7828 O   0  0  0  0  0  0  0  0  0  0  0  0
   38.4291   17.6113   37.1574 C   0  0  0  0  0  0  0  0  0  0  0  0
   38.6376   17.1361   39.4922 C   0  0  0  0  0  0  0  0  0  0  0  0
   27.9819   17.0527   38.5859 O   0  0  0  0  0  0  0  0  0  0  0  0
   39.7118   17.8779   37.6161 O   0  0  0  0  0  0  0  0  0  0  0  0
   29.2047   16.4682   38.6549 C   0  0  0  0  0  0  0  0  0  0  0  0
   35.9704   18.8377   34.5770 C   0  0  0  0  0  0  0  0  0  0  0  0
   32.0387   15.6152   39.1152 C   0  0  0  0  0  0  0  0  0  0  0  0
   31.4000   16.7345   37.1461 C   0  0  0  0  0  0  0  0  0  0  0  0
   37.6774   17.2366   38.3881 C   0  0  0  0  0  0  0  0  0  0  0  0
   33.8618   16.4403   37.6643 C   0  0  0  0  0  0  0  0  0  0  0  0
   32.5253   18.2959   35.2604 O   0  0  0  0  0  0  0  0  0  0  0  0
   34.7421   15.8396   38.4240 O   0  0  0  0  0  0  0  0  0  0  0  0
  1  8  1  0
  1 11  1  0
  1 22  1  0
  2 16  1  0
  2 21  1  0
  2 24  1  0
  3 18  1  0
  3 20  1  0
  4 22  1  0
  5 13  1  0
  5 21  1  0
  6  7  1  0
  6  9  1  0
  6 22  1  0
  7 14  1  0
  8  9  1  0
  8 10  1  0
  9 17  1  0
 12 23  1  0
 12 24  1  0
 12 26  1  0
 13 23  1  0
 14 15  1  0
 14 26  1  0
 15 27  1  0
 17 20  1  0
 17 25  1  0
 18 25  1  0
 19 21  1  0
 26 28  2  0
M  END
>  <ID>  (1) 
conformer_0

$$$$
