
     RDKit          3D

 16 16  0  0  0  0  0  0  0  0999 V2000
   32.7368   17.7413   34.8817 O   0  0  0  0  0  0  0  0  0  0  0  0
   35.4754   17.6361   35.0286 O   0  0  0  0  0  0  0  0  0  0  0  0
   38.6647   19.1835   36.0081 C   0  0  0  0  0  0  0  0  0  0  0  0
   38.3396   20.3915   35.8909 O   0  0  0  0  0  0  0  0  0  0  0  0
   39.8470   18.8308   36.3102 O   0  0  0  0  0  0  0  0  0  0  0  0
   30.3105   17.7762   37.0169 C   0  0  0  0  0  0  0  0  0  0  0  0
   29.9949   17.8760   35.8130 O   0  0  0  0  0  0  0  0  0  0  0  0
   35.1369   18.1721   36.2455 C   0  0  0  0  0  0  0  0  0  0  0  0
   36.9823   17.5086   34.8433 C   0  0  0  0  0  0  0  0  0  0  0  0
   37.5966   18.1074   36.0486 C   0  0  0  0  0  0  0  0  0  0  0  0
   31.8227   17.5948   37.2037 C   0  0  0  0  0  0  0  0  0  0  0  0
   33.9321   20.3419   35.9184 O   0  0  0  0  0  0  0  0  0  0  0  0
   33.8708   19.0148   36.5388 C   0  0  0  0  0  0  0  0  0  0  0  0
   36.4288   18.5391   36.9156 C   0  0  0  0  0  0  0  0  0  0  0  0
   29.7094   18.2952   37.9473 O   0  0  0  0  0  0  0  0  0  0  0  0
   32.5461   18.3332   36.0911 C   0  0  0  0  0  0  0  0  0  0  0  0
  1 16  1  0
  2  8  1  0
  2  9  1  0
  3  4  2  0
  3  5  1  0
  3 10  1  0
  6  7  2  0
  6 11  1  0
  6 15  1  0
  8 13  1  0
  8 14  1  0
  9 10  1  0
 10 14  1  0
 11 16  1  0
 12 13  1  0
 13 16  1  0
M  END
>  <ID>  (1) 
conformer_0

$$$$
