
     RDKit          3D

 29 31  0  0  0  0  0  0  0  0999 V2000
   36.2792   18.4075   35.4277 C   0  0  0  0  0  0  0  0  0  0  0  0
   37.7947   19.4035   33.7059 C   0  0  0  0  0  0  0  0  0  0  0  0
   32.2751   17.7201   35.5654 C   0  0  0  0  0  0  0  0  0  0  0  0
   37.7529   16.2403   34.7773 O   0  0  0  0  0  0  0  0  0  0  0  0
   32.3498   17.0457   37.8061 O   0  0  0  0  0  0  0  0  0  0  0  0
   36.5454   17.3223   36.4604 N   0  0  0  0  0  0  0  0  0  0  0  0
   39.5221   16.0790   36.5352 C   0  0  0  0  0  0  0  0  0  0  0  0
   37.8398   20.5166   35.8274 O   0  0  0  0  0  0  0  0  0  0  0  0
   38.1232   16.8843   36.1107 C   0  0  0  0  0  0  0  0  0  0  0  0
   39.3805   14.5764   36.7830 C   0  0  0  0  0  0  0  0  0  0  0  0
   40.1303   16.7519   37.7787 C   0  0  0  0  0  0  0  0  0  0  0  0
   34.7510   18.4832   35.2881 C   0  0  0  0  0  0  0  0  0  0  0  0
   33.7051   17.2031   37.4384 C   0  0  0  0  0  0  0  0  0  0  0  0
   31.4698   17.2720   36.7443 C   0  0  0  0  0  0  0  0  0  0  0  0
   36.5144   19.6725   33.0774 O   0  0  0  0  0  0  0  0  0  0  0  0
   37.5910   19.2115   35.2316 C   0  0  0  0  0  0  0  0  0  0  0  0
   39.9343   18.9339   35.6598 O   0  0  0  0  0  0  0  0  0  0  0  0
   33.7657   17.6148   36.0029 C   0  0  0  0  0  0  0  0  0  0  0  0
   38.6837   18.3217   35.8857 C   0  0  0  0  0  0  0  0  0  0  0  0
   33.0777   15.1908   39.4441 O   0  0  0  0  0  0  0  0  0  0  0  0
   36.8785   15.6597   38.0873 O   0  0  0  0  0  0  0  0  0  0  0  0
   30.2056   17.4175   36.8442 O   0  0  0  0  0  0  0  0  0  0  0  0
   34.6282   16.2303   37.9479 N   0  0  0  0  0  0  0  0  0  0  0  0
   40.4616   16.2373   35.4853 O   0  0  0  0  0  0  0  0  0  0  0  0
   35.9905   16.4046   37.4495 C   0  0  0  0  0  0  0  0  0  0  0  0
   34.1162   15.1397   38.6989 C   0  0  0  0  0  0  0  0  0  0  0  0
   34.3939   19.8332   35.2517 O   0  0  0  0  0  0  0  0  0  0  0  0
   31.4660   18.6041   34.8051 O   0  0  0  0  0  0  0  0  0  0  0  0
   34.7413   14.0065   38.6088 O   0  0  0  0  0  0  0  0  0  0  0  0
  1  6  1  0
  1 12  1  0
  1 16  1  0
  2 15  1  0
  2 16  1  0
  3 14  1  0
  3 18  1  0
  3 28  1  0
  4  9  1  0
  5 13  1  0
  5 14  1  0
  6  9  1  0
  6 25  1  0
  7  9  1  0
  7 10  1  0
  7 11  1  0
  7 24  1  0
  8 16  1  0
  9 19  1  0
 12 18  1  0
 12 27  1  0
 13 18  1  0
 13 23  1  0
 14 22  2  0
 16 19  1  0
 17 19  1  0
 20 26  2  0
 21 25  2  0
 23 25  1  0
 23 26  1  0
 26 29  1  0
M  END
>  <ID>  (1) 
conformer_0

$$$$
