
     RDKit          3D

 36 39  0  0  0  0  0  0  0  0999 V2000
   39.2353   16.5937   38.8396 C   0  0  0  0  0  0  0  0  0  0  0  0
   33.5543   20.0478   35.6898 O   0  0  0  0  0  0  0  0  0  0  0  0
   31.0458   17.5719   36.1694 C   0  0  0  0  0  0  0  0  0  0  0  0
   36.7376   18.6024   35.2942 C   0  0  0  0  0  0  0  0  0  0  0  0
   38.4051   13.4182   36.1735 C   0  0  0  0  0  0  0  0  0  0  0  0
   34.6659   15.2222   37.9736 C   0  0  0  0  0  0  0  0  0  0  0  0
   35.0662   18.2878   37.2633 O   0  0  0  0  0  0  0  0  0  0  0  0
   33.0200   16.9600   37.4365 C   0  0  0  0  0  0  0  0  0  0  0  0
   33.6462   16.1142   38.2829 O   0  0  0  0  0  0  0  0  0  0  0  0
   40.0039   17.1686   40.1209 C   0  0  0  0  0  0  0  0  0  0  0  0
   37.2667   19.5848   34.3170 C   0  0  0  0  0  0  0  0  0  0  0  0
   37.2702   18.7235   36.6194 C   0  0  0  0  0  0  0  0  0  0  0  0
   39.6383   12.8217   38.1155 C   0  0  0  0  0  0  0  0  0  0  0  0
   40.1213   15.2616   39.0711 C   0  0  0  0  0  0  0  0  0  0  0  0
   29.7862   17.3961   35.8900 O   0  0  0  0  0  0  0  0  0  0  0  0
   39.2472   18.1064   35.3226 C   0  0  0  0  0  0  0  0  0  0  0  0
   39.0798   12.3058   36.8153 C   0  0  0  0  0  0  0  0  0  0  0  0
   31.7135   16.7408   37.0336 C   0  0  0  0  0  0  0  0  0  0  0  0
   31.7443   18.6662   35.6514 C   0  0  0  0  0  0  0  0  0  0  0  0
   33.0240   18.8964   36.1053 C   0  0  0  0  0  0  0  0  0  0  0  0
   39.6103   17.4802   37.7023 C   0  0  0  0  0  0  0  0  0  0  0  0
   38.9843   14.6122   36.7955 O   0  0  0  0  0  0  0  0  0  0  0  0
   39.1578   15.6310   35.6587 C   0  0  0  0  0  0  0  0  0  0  0  0
   37.8894   16.5068   39.0392 O   0  0  0  0  0  0  0  0  0  0  0  0
   38.8844   16.8427   34.6275 C   0  0  0  0  0  0  0  0  0  0  0  0
   38.9858   19.3635   34.6173 C   0  0  0  0  0  0  0  0  0  0  0  0
   36.2509   17.4260   34.8296 O   0  0  0  0  0  0  0  0  0  0  0  0
   36.1130   20.0755   33.4775 O   0  0  0  0  0  0  0  0  0  0  0  0
   35.8844   19.1626   36.5195 C   0  0  0  0  0  0  0  0  0  0  0  0
   41.0833   16.1785   39.8766 O   0  0  0  0  0  0  0  0  0  0  0  0
   41.0467   17.8177   37.5420 C   0  0  0  0  0  0  0  0  0  0  0  0
   33.6975   18.0425   36.9540 C   0  0  0  0  0  0  0  0  0  0  0  0
   39.6572   14.2585   37.9876 C   0  0  0  0  0  0  0  0  0  0  0  0
   37.2438   13.7028   35.1916 C   0  0  0  0  0  0  0  0  0  0  0  0
   38.6852   18.1057   36.7228 C   0  0  0  0  0  0  0  0  0  0  0  0
   38.3005   19.2790   33.4549 O   0  0  0  0  0  0  0  0  0  0  0  0
  1 10  1  0
  1 14  1  0
  1 21  1  0
  1 24  1  0
  2 20  1  0
  3 15  1  0
  3 18  2  0
  3 19  1  0
  4 11  1  0
  4 12  1  0
  4 27  1  0
  5 17  1  0
  5 22  1  0
  5 34  1  0
  6  9  1  0
  7 29  1  0
  7 32  1  0
  8  9  1  0
  8 18  1  0
  8 32  1  0
 10 30  1  0
 11 28  1  0
 11 36  1  0
 12 29  1  0
 12 35  1  0
 13 17  1  0
 13 33  1  0
 14 30  1  0
 14 33  1  0
 16 25  1  0
 16 26  1  0
 16 35  1  0
 19 20  1  0
 20 32  2  0
 21 31  1  0
 21 35  1  0
 22 33  1  0
 23 25  1  0
 26 36  1  0
M  END
>  <ID>  (1) 
conformer_0

$$$$
