
     RDKit          3D

 21 21  0  0  0  0  0  0  0  0999 V2000
   33.2360   16.0197   37.9461 C   0  0  0  0  0  0  0  0  0  0  0  0
   33.6829   17.7336   36.0264 C   0  0  0  0  0  0  0  0  0  0  0  0
   38.1542   19.5856   35.4006 C   0  0  0  0  0  0  0  0  0  0  0  0
   38.3962   20.8294   35.9518 O   0  0  0  0  0  0  0  0  0  0  0  0
   39.4131   17.7948   34.4253 O   0  0  0  0  0  0  0  0  0  0  0  0
   37.5041   19.7271   34.1678 O   0  0  0  0  0  0  0  0  0  0  0  0
   35.4464   16.9170   37.6860 O   0  0  0  0  0  0  0  0  0  0  0  0
   34.1632   20.1051   35.5830 O   0  0  0  0  0  0  0  0  0  0  0  0
   40.4217   19.2080   35.9409 O   0  0  0  0  0  0  0  0  0  0  0  0
   29.6591   17.9144   37.2617 O   0  0  0  0  0  0  0  0  0  0  0  0
   34.2325   16.5935   36.8713 C   0  0  0  0  0  0  0  0  0  0  0  0
   31.7460   16.5685   37.8380 C   0  0  0  0  0  0  0  0  0  0  0  0
   39.4169   18.8161   35.2192 C   0  0  0  0  0  0  0  0  0  0  0  0
   31.8051   18.8806   35.1397 O   0  0  0  0  0  0  0  0  0  0  0  0
   31.5870   16.5159   36.2876 C   0  0  0  0  0  0  0  0  0  0  0  0
   30.7722   17.7494   38.1778 C   0  0  0  0  0  0  0  0  0  0  0  0
   34.6234   18.9382   36.1934 C   0  0  0  0  0  0  0  0  0  0  0  0
   37.2248   18.8895   36.4414 C   0  0  0  0  0  0  0  0  0  0  0  0
   35.9915   18.4576   35.7363 C   0  0  0  0  0  0  0  0  0  0  0  0
   32.1985   17.8041   35.8379 C   0  0  0  0  0  0  0  0  0  0  0  0
   36.0811   17.2831   35.0815 O   0  0  0  0  0  0  0  0  0  0  0  0
  1 11  1  0
  1 12  1  0
  2 11  1  0
  2 17  1  0
  2 20  1  0
  3  4  1  0
  3  6  1  0
  3 13  1  0
  3 18  1  0
  5 13  2  0
  7 11  1  0
  8 17  1  0
  9 13  1  0
 10 16  1  0
 12 15  1  0
 12 16  1  0
 14 20  1  0
 15 20  1  0
 17 19  1  0
 18 19  1  0
 19 21  1  0
M  END
>  <ID>  (1) 
conformer_0

$$$$
