
     RDKit          3D

 17 18  0  0  0  0  0  0  0  0999 V2000
   35.5747   17.8105   35.8519 C   0  0  0  0  0  0  0  0  0  0  0  0
   39.8815   18.6788   36.3661 O   0  0  0  0  0  0  0  0  0  0  0  0
   31.5012   17.5176   35.6079 C   0  0  0  0  0  0  0  0  0  0  0  0
   33.0503   17.6892   35.4902 C   0  0  0  0  0  0  0  0  0  0  0  0
   36.4959   18.6788   34.9837 C   0  0  0  0  0  0  0  0  0  0  0  0
   36.5026   16.9810   36.8230 C   0  0  0  0  0  0  0  0  0  0  0  0
   31.1382   16.4915   36.1616 O   0  0  0  0  0  0  0  0  0  0  0  0
   38.0013   20.6746   35.6603 O   0  0  0  0  0  0  0  0  0  0  0  0
   38.0254   17.2267   36.8348 C   0  0  0  0  0  0  0  0  0  0  0  0
   37.6170   19.3613   35.7007 C   0  0  0  0  0  0  0  0  0  0  0  0
   34.4060   16.9248   35.5062 O   0  0  0  0  0  0  0  0  0  0  0  0
   30.7892   18.4330   35.2690 O   0  0  0  0  0  0  0  0  0  0  0  0
   38.5790   18.5040   36.3885 C   0  0  0  0  0  0  0  0  0  0  0  0
   34.8458   18.7207   36.7923 O   0  0  0  0  0  0  0  0  0  0  0  0
   33.4394   18.9099   36.3780 C   0  0  0  0  0  0  0  0  0  0  0  0
   38.7654   16.5001   37.7283 O   0  0  0  0  0  0  0  0  0  0  0  0
   35.7361   19.5657   34.1468 O   0  0  0  0  0  0  0  0  0  0  0  0
  1  5  1  0
  1  6  1  0
  1 11  1  0
  1 14  1  0
  2 13  1  0
  3  4  1  0
  3  7  2  0
  3 12  1  0
  4 11  1  0
  4 15  1  0
  5 10  1  0
  5 17  1  0
  6  9  1  0
  8 10  1  0
  9 13  1  0
  9 16  1  0
 10 13  1  0
 14 15  1  0
M  END
>  <ID>  (1) 
conformer_0

$$$$
