
     RDKit          3D

 33 35  0  0  0  0  0  0  0  0999 V2000
   31.5879   15.6967   38.2834 C   0  0  0  0  0  0  0  0  0  0  0  0
   32.8542   19.2864   36.3426 C   0  0  0  0  0  0  0  0  0  0  0  0
   31.2521   14.5544   39.0216 C   0  0  0  0  0  0  0  0  0  0  0  0
   32.1982   12.9289   40.4614 O   0  0  0  0  0  0  0  0  0  0  0  0
   37.3583   12.9947   35.8364 C   0  0  0  0  0  0  0  0  0  0  0  0
   38.2132   16.7402   36.9018 C   0  0  0  0  0  0  0  0  0  0  0  0
   35.7175   13.7537   37.4435 C   0  0  0  0  0  0  0  0  0  0  0  0
   34.7230   15.9138   36.3623 C   0  0  0  0  0  0  0  0  0  0  0  0
   38.7329   17.5368   34.4598 C   0  0  0  0  0  0  0  0  0  0  0  0
   39.4772   18.7732   36.4050 O   0  0  0  0  0  0  0  0  0  0  0  0
   36.9193   19.5005   34.4772 C   0  0  0  0  0  0  0  0  0  0  0  0
   33.1919   20.4761   35.9285 O   0  0  0  0  0  0  0  0  0  0  0  0
   38.7802   17.7583   35.9328 C   0  0  0  0  0  0  0  0  0  0  0  0
   35.5362   13.0338   38.5360 O   0  0  0  0  0  0  0  0  0  0  0  0
   35.9208   15.2239   37.1797 C   0  0  0  0  0  0  0  0  0  0  0  0
   37.6822   14.4136   35.6912 C   0  0  0  0  0  0  0  0  0  0  0  0
   32.3217   13.9937   39.7908 C   0  0  0  0  0  0  0  0  0  0  0  0
   33.6592   14.5011   39.7240 C   0  0  0  0  0  0  0  0  0  0  0  0
   38.5902   14.6806   34.5169 C   0  0  0  0  0  0  0  0  0  0  0  0
   38.0817   17.2523   38.3812 C   0  0  0  0  0  0  0  0  0  0  0  0
   33.7166   14.8393   38.3707 N   0  0  0  0  0  0  0  0  0  0  0  0
   33.8317   18.2081   36.3644 C   0  0  0  0  0  0  0  0  0  0  0  0
   36.6575   19.7453   35.7108 O   0  0  0  0  0  0  0  0  0  0  0  0
   37.3468   15.4979   36.6576 C   0  0  0  0  0  0  0  0  0  0  0  0
   36.7750   20.5121   33.6228 O   0  0  0  0  0  0  0  0  0  0  0  0
   32.9512   15.9565   37.9748 C   0  0  0  0  0  0  0  0  0  0  0  0
   31.5361   18.7461   36.4925 C   0  0  0  0  0  0  0  0  0  0  0  0
   33.5413   16.8321   36.8953 C   0  0  0  0  0  0  0  0  0  0  0  0
   31.3327   17.9176   37.6598 C   0  0  0  0  0  0  0  0  0  0  0  0
   34.5880   18.1090   35.1874 O   0  0  0  0  0  0  0  0  0  0  0  0
   35.8980   12.8474   36.2419 C   0  0  0  0  0  0  0  0  0  0  0  0
   30.6664   16.6216   37.7204 C   0  0  0  0  0  0  0  0  0  0  0  0
   37.4428   18.2548   33.8522 C   0  0  0  0  0  0  0  0  0  0  0  0
  1  3  1  0
  1 26  1  0
  1 32  1  0
  2 12  1  0
  2 22  1  0
  2 27  1  0
  3 17  1  0
  4 17  2  0
  5 16  1  0
  5 31  1  0
  6 13  1  0
  6 20  1  0
  6 24  1  0
  7 14  1  0
  7 15  1  0
  7 31  1  0
  8 15  1  0
  8 28  1  0
  9 13  1  0
  9 33  1  0
 10 13  1  0
 11 23  2  0
 11 25  1  0
 11 33  1  0
 15 24  1  0
 16 19  1  0
 16 24  1  0
 17 18  1  0
 18 21  1  0
 21 26  1  0
 22 28  1  0
 22 30  1  0
 26 28  1  0
 27 29  1  0
 29 32  1  0
M  END
>  <ID>  (1) 
conformer_0

$$$$
