
     RDKit          3D

 26 30  0  0  0  0  0  0  0  0999 V2000
   32.2574   16.3863   36.3553 C   0  0  0  0  0  0  0  0  0  0  0  0
   30.1281   17.2249   36.1075 C   0  0  0  0  0  0  0  0  0  0  0  0
   34.8252   15.9770   36.2842 N   0  0  0  0  0  0  0  0  0  0  0  0
   38.3035   17.8851   36.1957 C   0  0  0  0  0  0  0  0  0  0  0  0
   31.4893   15.4305   36.7242 N   0  0  0  0  0  0  0  0  0  0  0  0
   33.5577   16.6546   36.1538 N   0  0  0  0  0  0  0  0  0  0  0  0
   33.6301   17.9402   35.7235 C   0  0  0  0  0  0  0  0  0  0  0  0
   37.0472   18.7779   36.2699 C   0  0  0  0  0  0  0  0  0  0  0  0
   34.8215   18.6409   35.3023 C   0  0  0  0  0  0  0  0  0  0  0  0
   38.2554   15.6887   35.0933 N   0  0  0  0  0  0  0  0  0  0  0  0
   30.1181   15.9036   36.5862 C   0  0  0  0  0  0  0  0  0  0  0  0
   35.0873   19.8233   34.7007 O   0  0  0  0  0  0  0  0  0  0  0  0
   39.5355   14.5367   38.9083 O   0  0  0  0  0  0  0  0  0  0  0  0
   40.0378   16.6819   39.2443 O   0  0  0  0  0  0  0  0  0  0  0  0
   29.1378   17.9602   35.7698 O   0  0  0  0  0  0  0  0  0  0  0  0
   39.6312   15.9432   37.0465 C   0  0  0  0  0  0  0  0  0  0  0  0
   36.1141   16.5973   36.1096 C   0  0  0  0  0  0  0  0  0  0  0  0
   31.4705   17.5448   36.0132 N   0  0  0  0  0  0  0  0  0  0  0  0
   39.7654   15.6830   38.4989 C   0  0  0  0  0  0  0  0  0  0  0  0
   32.3790   18.5439   35.6599 C   0  0  0  0  0  0  0  0  0  0  0  0
   37.4802   20.0527   36.7934 O   0  0  0  0  0  0  0  0  0  0  0  0
   39.2722   15.0421   35.9493 C   0  0  0  0  0  0  0  0  0  0  0  0
   39.6832   17.3471   36.6334 C   0  0  0  0  0  0  0  0  0  0  0  0
   37.5807   16.6087   35.8784 C   0  0  0  0  0  0  0  0  0  0  0  0
   36.0264   17.9393   35.6356 C   0  0  0  0  0  0  0  0  0  0  0  0
   38.4358   20.6479   35.9114 O   0  0  0  0  0  0  0  0  0  0  0  0
  1  5  2  0
  1  6  1  0
  1 18  1  0
  2 11  1  0
  2 15  2  0
  2 18  1  0
  3  6  1  0
  3 17  2  0
  4  8  1  0
  4 23  1  0
  4 24  1  0
  5 11  1  0
  6  7  1  0
  7  9  2  0
  7 20  1  0
  8 21  1  0
  8 25  1  0
  9 12  1  0
  9 25  1  0
 10 22  1  0
 10 24  1  0
 13 19  2  0
 14 19  1  0
 16 19  1  0
 16 22  1  0
 16 23  1  0
 17 24  1  0
 17 25  1  0
 18 20  1  0
 21 26  1  0
M  END
>  <ID>  (1) 
conformer_0

$$$$
