
     RDKit          3D

 19 19  0  0  0  0  0  0  0  0999 V2000
   33.9304   20.1463   35.9373 O   0  0  0  0  0  0  0  0  0  0  0  0
   38.2332   20.5126   35.8357 O   0  0  0  0  0  1  0  0  0  0  0  0
   36.7655   17.6781   35.9205 C   0  0  0  0  0  0  0  0  0  0  0  0
   38.9675   19.2124   35.6430 P   0  0  0  0  0  4  0  0  0  0  0  0
   33.6034   16.8437   38.1079 O   0  0  0  0  0  0  0  0  0  0  0  0
   31.4563   17.6243   37.1553 C   0  0  0  0  0  0  0  0  0  0  0  0
   33.2170   16.4542   35.8593 N   0  0  0  0  0  0  0  0  0  0  0  0
   31.9768   18.6620   36.1816 C   0  0  0  0  0  0  0  0  0  0  0  0
   31.4765   18.7116   34.8968 O   0  0  0  0  0  0  0  0  0  0  0  0
   35.5802   18.2715   35.1765 C   0  0  0  0  0  0  0  0  0  0  0  0
   34.2818   17.6278   35.7667 C   0  0  0  0  0  0  0  0  0  0  0  0
   30.1017   17.5941   37.1811 O   0  0  0  0  0  0  0  0  0  0  0  0
   39.9645   19.2152   34.4852 O   0  0  0  0  0  0  0  0  0  0  0  0
   31.2476   16.1016   39.3794 C   0  0  0  0  0  0  0  0  0  0  0  0
   37.9817   18.0479   35.2356 O   0  0  0  0  0  0  0  0  0  0  0  0
   32.5016   16.4885   37.2452 C   0  0  0  0  0  0  0  0  0  0  0  0
   33.4822   18.8457   36.3182 C   0  0  0  0  0  0  0  0  0  0  0  0
   39.6697   18.8170   36.8997 O   0  0  0  0  0  0  0  0  0  0  0  0
   31.7569   15.3552   38.0688 C   0  0  0  0  0  0  0  0  0  0  0  0
  1 17  1  0
  2  4  2  0
  3 10  1  0
  3 15  1  0
  4 13  1  0
  4 15  1  0
  4 18  1  0
  5 16  1  0
  6  8  1  0
  6 12  1  0
  6 16  1  0
  7 11  1  0
  7 16  1  0
  8  9  1  0
  8 17  1  0
 10 11  1  0
 11 17  1  0
 14 19  1  0
 16 19  1  0
M  END
>  <ID>  (1) 
conformer_0

$$$$
