
     RDKit          3D

 31 35  0  0  0  0  0  0  0  0999 V2000
   33.7834   15.2222   37.3762 C   0  0  0  0  0  0  0  0  0  0  0  0
   30.2482   17.2304   38.9098 C   0  0  0  0  0  0  0  0  0  0  0  0
   36.9032   14.6850   36.2226 C   0  0  0  0  0  0  0  0  0  0  0  0
   30.0240   16.0268   37.9502 C   0  0  0  0  0  0  0  0  0  0  0  0
   37.8555   16.8278   38.5409 C   0  0  0  0  0  0  0  0  0  0  0  0
   35.6486   18.5098   36.2582 C   0  0  0  0  0  0  0  0  0  0  0  0
   34.6111   16.4313   36.9258 C   0  0  0  0  0  0  0  0  0  0  0  0
   32.3890   15.5948   37.3479 C   0  0  0  0  0  0  0  0  0  0  0  0
   37.8089   20.3609   35.1942 O   0  0  0  0  0  0  0  0  0  0  0  0
   37.5080   17.0786   37.0242 C   0  0  0  0  0  0  0  0  0  0  0  0
   37.9672   15.7799   36.2490 C   0  0  0  0  0  0  0  0  0  0  0  0
   35.9518   17.1735   36.8534 C   0  0  0  0  0  0  0  0  0  0  0  0
   35.4958   19.6080   34.0977 O   0  0  0  0  0  0  0  0  0  0  0  0
   38.8817   16.4516   41.2340 C   0  0  0  0  0  0  0  0  0  0  0  0
   32.3812   17.0047   37.1524 C   0  0  0  0  0  0  0  0  0  0  0  0
   33.6575   17.4658   36.7222 C   0  0  0  0  0  0  0  0  0  0  0  0
   37.7394   18.9879   35.0391 C   0  0  0  0  0  0  0  0  0  0  0  0
   30.0910   16.6363   36.5396 C   0  0  0  0  0  0  0  0  0  0  0  0
   34.2359   18.6485   36.2825 O   0  0  0  0  0  0  0  0  0  0  0  0
   36.3835   14.0269   37.3942 N   0  0  0  0  0  0  0  0  0  0  0  0
   39.3212   17.5807   40.4286 C   0  0  0  0  0  0  0  0  0  0  0  0
   31.1924   17.7300   36.7132 C   0  0  0  0  0  0  0  0  0  0  0  0
   30.7356   18.4665   38.0134 C   0  0  0  0  0  0  0  0  0  0  0  0
   39.4613   18.6146   36.7205 O   0  0  0  0  0  0  0  0  0  0  0  0
   28.7908   17.4703   36.3277 C   0  0  0  0  0  0  0  0  0  0  0  0
   36.1845   18.6262   34.8141 C   0  0  0  0  0  0  0  0  0  0  0  0
   39.2452   17.3578   38.9707 C   0  0  0  0  0  0  0  0  0  0  0  0
   38.3882   18.4690   33.9105 O   0  0  0  0  0  0  0  0  0  0  0  0
   31.3867   18.5056   35.5697 O   0  0  0  0  0  0  0  0  0  0  0  0
   31.2223   15.1015   38.0723 C   0  0  0  0  0  0  0  0  0  0  0  0
   38.1862   18.2658   36.3342 C   0  0  0  0  0  0  0  0  0  0  0  0
  1  7  1  0
  1  8  1  0
  2  4  1  0
  2 23  1  0
  3 11  1  0
  3 20  1  0
  4 18  1  0
  4 30  1  0
  5 10  1  0
  5 27  1  0
  6 12  1  0
  6 19  1  0
  6 26  1  0
  7 12  1  0
  7 16  2  0
  8 15  1  0
  8 30  1  0
  9 17  1  0
 10 11  1  0
 10 12  1  0
 10 31  1  0
 13 26  1  0
 14 21  1  0
 15 16  1  0
 15 22  1  0
 16 19  1  0
 17 26  1  0
 17 28  1  0
 17 31  1  0
 18 22  1  0
 18 25  1  0
 21 27  1  0
 22 23  1  0
 22 29  1  0
 24 31  1  0
M  END
>  <ID>  (1) 
conformer_0

$$$$
