
     RDKit          3D

 20 20  0  0  0  0  0  0  0  0999 V2000
   35.8287   17.5680   36.2631 C   0  0  0  0  0  0  0  0  0  0  0  0
   33.0656   16.0602   35.3866 O   0  0  0  0  0  0  0  0  0  0  0  0
   37.3843   18.7646   34.4589 C   0  0  0  0  0  0  0  0  0  0  0  0
   37.1929   16.7467   36.0072 C   0  0  0  0  0  0  0  0  0  0  0  0
   39.4051   17.5738   35.1351 C   0  0  0  0  0  0  0  0  0  0  0  0
   33.2139   17.3113   36.1287 C   0  0  0  0  0  0  0  0  0  0  0  0
   34.5066   17.9853   35.5315 C   0  0  0  0  0  0  0  0  0  0  0  0
   34.4134   19.3809   35.3184 O   0  0  0  0  0  0  0  0  0  0  0  0
   36.4752   18.8984   36.8215 C   0  0  0  0  0  0  0  0  0  0  0  0
   38.7039   17.7519   37.6671 O   0  0  0  0  0  0  0  0  0  0  0  0
   31.8604   18.0800   36.1861 C   0  0  0  0  0  0  0  0  0  0  0  0
   33.6050   16.9468   37.5917 C   0  0  0  0  0  0  0  0  0  0  0  0
   38.0820   20.5142   35.9649 O   0  0  0  0  0  0  0  0  0  0  0  0
   38.6024   17.2324   36.3747 C   0  0  0  0  0  0  0  0  0  0  0  0
   31.5470   18.8027   35.0608 O   0  0  0  0  0  0  0  0  0  0  0  0
   40.2745   18.6543   35.1884 O   0  0  0  0  0  0  0  0  0  0  0  0
   30.6479   17.4601   36.8614 C   0  0  0  0  0  0  0  0  0  0  0  0
   29.4523   17.9937   36.3703 O   0  0  0  0  0  0  0  0  0  0  0  0
   38.4341   17.7715   33.9742 C   0  0  0  0  0  0  0  0  0  0  0  0
   37.4963   19.3869   35.8172 C   0  0  0  0  0  0  0  0  0  0  0  0
  1  4  1  0
  1  7  1  0
  1  9  1  0
  2  6  1  0
  3 19  1  0
  3 20  1  0
  4 14  1  0
  5 14  1  0
  5 16  1  0
  5 19  1  0
  6  7  1  0
  6 11  1  0
  6 12  1  0
  7  8  1  0
  9 20  1  0
 10 14  1  0
 11 15  1  0
 11 17  1  0
 13 20  2  0
 17 18  1  0
M  END
>  <ID>  (1) 
conformer_0

$$$$
