
     RDKit          3D

 21 22  0  0  0  0  0  0  0  0999 V2000
   32.0839   18.3850   34.6561 N   0  0  0  0  0  0  0  0  0  0  0  0
   33.8439   20.3869   35.8948 O   0  0  0  0  0  0  0  0  0  0  0  0
   32.1276   17.0809   36.7605 C   0  0  0  0  0  0  0  0  0  0  0  0
   29.9181   17.8538   36.1912 O   0  0  0  0  0  0  0  0  0  0  0  0
   38.6277   17.8445   35.6338 C   0  0  0  0  0  0  0  0  0  0  0  0
   38.2664   20.3110   35.7646 O   0  0  0  0  0  0  0  0  0  0  0  0
   40.3174   19.4780   35.9159 O   0  0  0  0  0  0  0  0  0  0  0  0
   34.7633   17.0102   37.1105 C   0  0  0  0  0  0  0  0  0  0  0  0
   36.2209   18.4135   35.7433 O   0  0  0  0  0  0  0  0  0  0  0  0
   33.3957   16.8049   37.6346 C   0  0  0  0  0  0  0  0  0  0  0  0
   39.0557   19.2884   35.7044 C   0  0  0  0  0  0  0  0  0  0  0  0
   36.8564   16.2518   36.5132 C   0  0  0  0  0  0  0  0  0  0  0  0
   33.7498   19.0523   36.2616 C   0  0  0  0  0  0  0  0  0  0  0  0
   32.3904   18.4112   36.0254 C   0  0  0  0  0  0  0  0  0  0  0  0
   33.3435   15.7445   38.4981 O   0  0  0  0  0  0  0  0  0  0  0  0
   34.9134   18.0841   36.1249 C   0  0  0  0  0  0  0  0  0  0  0  0
   37.2909   17.6720   36.2933 C   0  0  0  0  0  0  0  0  0  0  0  0
   38.6777   17.1161   34.4556 O   0  0  0  0  0  0  0  0  0  0  0  0
   35.8560   16.3665   37.6460 O   0  0  0  0  0  0  0  0  0  0  0  0
   30.1549   16.5478   37.9256 O   0  0  0  0  0  0  0  0  0  0  0  0
   30.5776   17.0725   36.9045 C   0  0  0  0  0  0  0  0  0  0  0  0
  1 14  1  0
  2 13  1  0
  3 10  1  0
  3 14  1  0
  3 21  1  0
  4 21  2  0
  5 11  1  0
  5 17  1  0
  5 18  1  0
  6 11  2  0
  7 11  1  0
  8 10  1  0
  8 16  1  0
  8 19  1  0
  9 16  1  0
  9 17  1  0
 10 15  1  0
 12 17  1  0
 12 19  1  0
 13 14  1  0
 13 16  1  0
 20 21  1  0
M  END
>  <ID>  (1) 
conformer_0

$$$$
