
     RDKit          3D

 13 12  0  0  0  0  0  0  0  0999 V2000
   37.6600   18.9927   34.2465 O   0  0  0  0  0  1  0  0  0  0  0  0
   32.7607   18.2202   35.8725 C   0  0  0  0  0  0  0  0  0  0  0  0
   35.2775   17.6266   35.7928 C   0  0  0  0  0  0  0  0  0  0  0  0
   37.3775   18.4753   36.9180 C   0  0  0  0  0  0  0  0  0  0  0  0
   31.6514   18.7373   35.1575 O   0  0  0  0  0  0  0  0  0  0  0  0
   37.9899   20.8505   35.9045 O   0  0  0  0  0  0  0  0  0  0  0  0
   35.9325   18.6312   36.6902 O   0  0  0  0  0  0  0  0  0  0  0  0
   33.2591   20.6154   35.8866 O   0  0  0  0  0  0  0  0  0  0  0  0
   33.8784   17.0258   36.0798 C   0  0  0  0  0  0  0  0  0  0  0  0
   39.6999   19.1246   35.7153 O   0  0  0  0  0  0  0  0  0  0  0  0
   33.4425   19.4675   36.4838 C   0  0  0  0  0  0  0  0  0  0  0  0
   38.2104   19.4090   35.6503 P   0  0  0  0  0  4  0  0  0  0  0  0
   33.7852   16.4641   37.8390 S   0  0  0  0  0  0  0  0  0  0  0  0
  1 12  2  0
  2  5  1  0
  2  9  1  0
  2 11  1  0
  3  7  1  0
  3  9  1  0
  4  7  1  0
  4 12  1  0
  6 12  1  0
  8 11  1  0
  9 13  1  0
 10 12  1  0
M  END
>  <ID>  (1) 
conformer_0

$$$$
