
     RDKit          3D

 21 23  0  0  0  0  0  0  0  0999 V2000
   35.0658   15.7807   38.6270 O   0  0  0  0  0  0  0  0  0  0  0  0
   37.6180   16.8936   36.2447 C   0  0  0  0  0  0  0  0  0  0  0  0
   38.1644   18.4418   34.1645 C   0  0  0  0  0  0  0  0  0  0  0  0
   31.4231   17.3146   38.3984 C   0  0  0  0  0  0  0  0  0  0  0  0
   32.7373   17.6260   36.3231 C   0  0  0  0  0  0  0  0  0  0  0  0
   35.1943   17.3864   36.4636 C   0  0  0  0  0  0  0  0  0  0  0  0
   33.8243   19.7399   35.8195 O   0  0  0  0  0  0  0  0  0  0  0  0
   30.3289   17.6002   36.3079 N   0  0  0  0  0  0  0  0  0  0  0  0
   38.7794   17.8706   36.6264 C   0  0  0  0  0  0  0  0  0  0  0  0
   38.9091   19.0250   35.4880 C   0  0  0  0  0  0  0  0  0  0  0  0
   40.2808   19.1700   35.3152 O   0  0  0  0  0  0  0  0  0  0  0  0
   34.0669   18.3002   35.8834 C   0  0  0  0  0  0  0  0  0  0  0  0
   38.3511   20.2522   35.8630 O   0  0  0  0  0  0  0  0  0  0  0  0
   32.7617   17.1728   37.7369 C   0  0  0  0  0  0  0  0  0  0  0  0
   35.6594   16.4800   37.6150 C   0  0  0  0  0  0  0  0  0  0  0  0
   36.4637   17.6461   35.6775 C   0  0  0  0  0  0  0  0  0  0  0  0
   31.5038   18.2550   35.8623 C   0  0  0  0  0  0  0  0  0  0  0  0
   30.3371   16.8817   37.4909 C   0  0  0  0  0  0  0  0  0  0  0  0
   35.7270   19.2960   33.9090 O   0  0  0  0  0  0  0  0  0  0  0  0
   36.6655   18.4351   34.4672 C   0  0  0  0  0  0  0  0  0  0  0  0
   37.1570   16.2084   37.5592 C   0  0  0  0  0  0  0  0  0  0  0  0
  1 15  1  0
  2  9  1  0
  2 16  1  0
  2 21  1  0
  3 10  1  0
  3 20  1  0
  4 14  1  0
  4 18  1  0
  5 12  1  0
  5 14  1  0
  5 17  1  0
  6 12  1  0
  6 15  1  0
  6 16  1  0
  7 12  1  0
  8 17  1  0
  8 18  1  0
  9 10  1  0
 10 11  1  0
 10 13  1  0
 15 21  1  0
 16 20  2  0
 19 20  1  0
M  END
>  <ID>  (1) 
conformer_0

$$$$
