
     RDKit          3D

 21 22  0  0  0  0  0  0  0  0999 V2000
   38.0780   19.5190   35.1932 C   0  0  0  0  0  0  0  0  0  0  0  0
   35.4383   16.0154   36.8460 C   0  0  0  0  0  0  0  0  0  0  0  0
   30.5792   17.9800   37.6350 O   0  0  0  0  0  0  0  0  0  0  0  0
   38.5506   17.6338   38.7928 C   0  0  0  0  0  0  0  0  0  0  0  0
   39.8002   18.0581   38.2472 O   0  0  0  0  0  0  0  0  0  0  0  0
   31.7818   18.4180   37.4421 C   0  0  0  0  0  0  0  0  0  0  0  0
   32.2936   18.5882   36.0768 C   0  0  0  0  0  0  0  0  0  0  0  0
   36.0233   16.7694   35.6111 C   0  0  0  0  0  0  0  0  0  0  0  0
   31.4039   18.4945   35.1163 O   0  0  0  0  0  0  0  0  0  0  0  0
   33.6247   17.9117   35.7611 C   0  0  0  0  0  0  0  0  0  0  0  0
   37.7614   19.2543   33.9625 O   0  0  0  0  0  0  0  0  0  0  0  0
   34.0628   16.9811   37.2624 S   0  0  0  0  0  0  0  0  0  0  0  0
   34.8254   18.8779   35.6210 C   0  0  0  0  0  0  0  0  0  0  0  0
   37.8125   16.5273   37.9339 C   0  0  0  0  0  0  0  0  0  0  0  0
   39.3604   16.2434   36.1545 O   0  0  0  0  0  0  0  0  0  0  0  0
   38.2895   16.8989   36.5207 C   0  0  0  0  0  0  0  0  0  0  0  0
   36.2091   18.2599   36.0646 C   0  0  0  0  0  0  0  0  0  0  0  0
   34.3010   20.2182   35.6757 O   0  0  0  0  0  0  0  0  0  0  0  0
   36.5685   15.6115   37.7262 O   0  0  0  0  0  0  0  0  0  0  0  0
   37.8493   18.3408   36.1835 C   0  0  0  0  0  0  0  0  0  0  0  0
   38.1750   20.6537   35.7101 O   0  0  0  0  0  0  0  0  0  0  0  0
  1 11  2  0
  1 20  1  0
  1 21  1  0
  2  8  1  0
  2 12  1  0
  2 19  1  0
  3  6  1  0
  4  5  1  0
  4 14  1  0
  6  7  1  0
  7  9  1  0
  7 10  1  0
  8 17  1  0
 10 12  1  0
 10 13  1  0
 13 17  1  0
 13 18  1  0
 14 16  1  0
 14 19  1  0
 15 16  1  0
 16 20  1  0
 17 20  1  0
M  END
>  <ID>  (1) 
conformer_0

$$$$
