
     RDKit          3D

 23 22  0  0  0  0  0  0  0  0999 V2000
   32.1772   18.5875   36.9334 C   0  0  0  0  0  0  0  0  0  0  0  0
   35.0017   17.5495   37.1285 O   0  0  0  0  0  0  0  0  0  0  0  0
   36.4764   16.2457   38.4322 O   0  0  0  0  0  0  0  0  0  0  0  0
   40.2284   19.0415   35.4118 O   0  0  0  0  0  1  0  0  0  0  0  0
   36.2787   17.0986   37.4363 C   0  0  0  0  0  0  0  0  0  0  0  0
   33.8161   20.1402   35.8984 O   0  0  0  0  0  0  0  0  0  0  0  0
   36.8281   19.6199   33.8847 P   0  0  0  0  0  0  0  0  0  0  0  0
   37.8899   18.5757   34.1778 O   0  0  0  0  0  0  0  0  0  0  0  0
   30.9431   18.2595   34.9527 O   0  0  0  0  0  0  0  0  0  0  0  0
   38.4052   17.4804   36.3756 O   0  0  0  0  0  0  0  0  0  0  0  0
   36.2934   16.1003   35.2887 O   0  0  0  0  0  0  0  0  0  0  0  0
   29.8843   17.4603   36.9432 C   0  0  0  0  0  0  0  0  0  0  0  0
   33.3050   18.8555   35.9723 C   0  0  0  0  0  0  0  0  0  0  0  0
   31.0459   17.9588   36.1945 C   0  0  0  0  0  0  0  0  0  0  0  0
   37.1189   20.9527   33.6830 O   0  0  0  0  0  1  0  0  0  0  0  0
   38.1094   20.1383   36.1844 O   0  0  0  0  0  0  0  0  0  0  0  0
   37.1114   16.7806   36.1912 C   0  0  0  0  0  0  0  0  0  0  0  0
   30.0375   19.3180   38.5728 O   0  0  0  0  0  0  0  0  0  0  0  0
   35.4797   19.2432   34.0805 O   0  0  0  0  0  1  0  0  0  0  0  0
   29.7879   17.9136   38.3774 C   0  0  0  0  0  0  0  0  0  0  0  0
   38.6996   18.8653   35.5998 P   0  0  0  0  0  4  0  0  0  0  0  0
   34.2650   17.6168   35.8942 C   0  0  0  0  0  0  0  0  0  0  0  0
   33.4233   16.5303   35.5438 O   0  0  0  0  0  0  0  0  0  0  0  0
  1 13  1  0
  1 14  1  0
  2  5  1  0
  2 22  1  0
  3  5  2  0
  4 21  2  0
  5 17  1  0
  6 13  1  0
  7  8  1  0
  7 15  1  0
  7 19  1  0
  8 21  1  0
  9 14  2  0
 10 17  1  0
 10 21  1  0
 11 17  2  0
 12 14  1  0
 12 20  1  0
 13 22  1  0
 16 21  1  0
 18 20  1  0
 22 23  1  0
M  END
>  <ID>  (1) 
conformer_0

$$$$
