
     RDKit          3D

 33 36  0  0  0  0  0  0  0  0999 V2000
   36.2908   20.2408   33.1358 C   0  0  0  0  0  0  0  0  0  0  0  0
   38.1213   16.0795   38.2643 C   0  0  0  0  0  0  0  0  0  0  0  0
   39.1125   18.6615   34.6537 C   0  0  0  0  0  0  0  0  0  0  0  0
   33.2318   14.4580   36.8611 C   0  0  0  0  0  0  0  0  0  0  0  0
   33.3889   17.2665   35.3404 C   0  0  0  0  0  0  0  0  0  0  0  0
   38.6863   17.1493   34.8558 C   0  0  0  0  0  0  0  0  0  0  0  0
   35.6624   14.2171   38.1462 C   0  0  0  0  0  0  0  0  0  0  0  0
   34.8644   12.9885   37.9390 C   0  0  0  0  0  0  0  0  0  0  0  0
   40.4418   15.6667   39.5614 O   0  0  0  0  0  0  0  0  0  0  0  0
   38.7632   16.4661   41.1351 C   0  0  0  0  0  0  0  0  0  0  0  0
   32.2508   18.3572   37.2603 C   0  0  0  0  0  0  0  0  0  0  0  0
   38.9748   17.2815   38.7260 C   0  0  0  0  0  0  0  0  0  0  0  0
   31.8954   14.9823   37.3867 C   0  0  0  0  0  0  0  0  0  0  0  0
   35.3412   18.7326   34.6556 O   0  0  0  0  0  0  0  0  0  0  0  0
   38.1808   20.5527   35.8080 O   0  0  0  0  0  0  0  0  0  0  0  0
   33.5148   18.3780   36.3353 C   0  0  0  0  0  0  0  0  0  0  0  0
   37.4361   15.5302   39.4236 N   0  0  0  0  0  0  0  0  0  0  0  0
   39.7135   16.7952   39.9907 C   0  0  0  0  0  0  0  0  0  0  0  0
   36.6732   19.2103   34.2457 C   0  0  0  0  0  0  0  0  0  0  0  0
   38.2066   16.0481   35.7720 O   0  0  0  0  0  0  0  0  0  0  0  0
   33.5171   13.3688   37.6709 N   0  0  0  0  0  0  0  0  0  0  0  0
   37.2454   16.1224   36.9758 C   0  0  0  0  0  0  0  0  0  0  0  0
   32.3879   12.9466   38.3937 C   0  0  0  0  0  0  0  0  0  0  0  0
   36.3236   14.8333   36.8706 C   0  0  0  0  0  0  0  0  0  0  0  0
   30.9893   17.5569   36.8392 C   0  0  0  0  0  0  0  0  0  0  0  0
   37.9766   15.2432   40.7060 C   0  0  0  0  0  0  0  0  0  0  0  0
   34.7331   19.2397   35.9045 C   0  0  0  0  0  0  0  0  0  0  0  0
   31.2387   13.7375   37.7839 C   0  0  0  0  0  0  0  0  0  0  0  0
   36.5761   17.3588   36.9862 O   0  0  0  0  0  0  0  0  0  0  0  0
   30.2437   18.2122   35.8941 O   0  0  0  0  0  0  0  0  0  0  0  0
   32.1776   16.1427   35.1714 S   0  0  0  0  0  0  0  0  0  0  0  0
   31.2407   16.1125   36.5507 C   0  0  0  0  0  0  0  0  0  0  0  0
   37.9571   19.6186   34.8945 C   0  0  0  0  0  0  0  0  0  0  0  0
  1 19  1  0
  2 12  1  0
  2 17  1  0
  2 22  1  0
  3  6  1  0
  3 33  1  0
  4 13  1  0
  4 21  1  0
  5 16  2  0
  5 31  1  0
  6 20  1  0
  7  8  1  0
  7 24  2  0
  8 21  1  0
  9 18  1  0
 10 18  1  0
 10 26  1  0
 11 16  1  0
 11 25  1  0
 12 18  1  0
 13 28  1  0
 13 32  1  0
 14 19  1  0
 14 27  1  0
 15 33  1  0
 16 27  1  0
 17 26  1  0
 19 33  1  0
 20 22  1  0
 21 23  1  0
 22 24  1  0
 22 29  1  0
 23 28  1  0
 25 30  1  0
 25 32  1  0
 31 32  1  0
M  END
>  <ID>  (1) 
conformer_0

$$$$
