
     RDKit          3D

 29 32  0  0  0  0  0  0  0  0999 V2000
   40.0678   17.5870   38.0562 C   0  0  0  0  0  0  0  0  0  0  0  0
   32.4378   16.6459   35.7784 O   0  0  0  0  0  0  0  0  0  0  0  0
   38.5600   18.2911   33.6583 C   0  0  0  0  0  0  0  0  0  0  0  0
   35.3332   19.6084   34.9204 C   0  0  0  0  0  0  0  0  0  0  0  0
   33.7249   16.6037   36.6775 C   0  0  0  0  0  0  0  0  0  0  0  0
   38.8516   16.8707   37.6398 N   0  0  0  0  0  0  0  0  0  0  0  0
   30.9039   17.7733   37.2920 C   0  0  0  0  0  0  0  0  0  0  0  0
   38.6252   17.3401   39.9536 C   0  0  0  0  0  0  0  0  0  0  0  0
   34.3661   19.0971   36.0056 C   0  0  0  0  0  0  0  0  0  0  0  0
   39.0407   16.1578   35.1715 C   0  0  0  0  0  0  0  0  0  0  0  0
   34.5958   17.5815   35.8369 C   0  0  0  0  0  0  0  0  0  0  0  0
   36.5907   18.7463   35.1199 C   0  0  0  0  0  0  0  0  0  0  0  0
   31.6595   17.8038   35.9978 C   0  0  0  0  0  0  0  0  0  0  0  0
   33.0278   16.7570   38.1086 C   0  0  0  0  0  0  0  0  0  0  0  0
   38.2784   14.8776   38.7723 C   0  0  0  0  0  0  0  0  0  0  0  0
   33.4637   15.6936   39.2128 C   0  0  0  0  0  0  0  0  0  0  0  0
   38.1284   16.3934   38.8823 C   0  0  0  0  0  0  0  0  0  0  0  0
   39.9985   17.7879   39.4607 O   0  0  0  0  0  0  0  0  0  0  0  0
   37.1186   20.1576   33.3000 O   0  0  0  0  0  0  0  0  0  0  0  0
   31.4710   16.6614   38.0966 C   0  0  0  0  0  0  0  0  0  0  0  0
   38.3617   20.2685   35.2996 O   0  0  0  0  0  0  0  0  0  0  0  0
   36.0530   17.5601   35.8635 O   0  0  0  0  0  0  0  0  0  0  0  0
   37.7584   19.4632   34.3542 C   0  0  0  0  0  0  0  0  0  0  0  0
   39.9473   18.6023   33.5310 O   0  0  0  0  0  0  0  0  0  0  0  0
   31.4328   18.7762   35.1794 O   0  0  0  0  0  0  0  0  0  0  0  0
   38.5138   15.9419   36.5700 C   0  0  0  0  0  0  0  0  0  0  0  0
   34.6173   15.2546   36.7306 C   0  0  0  0  0  0  0  0  0  0  0  0
   38.1505   16.9261   34.1890 C   0  0  0  0  0  0  0  0  0  0  0  0
   38.1071   14.6257   37.1817 C   0  0  0  0  0  0  0  0  0  0  0  0
  1  6  1  0
  1 18  1  0
  2  5  1  0
  2 13  1  0
  3 23  1  0
  3 24  1  0
  3 28  1  0
  4  9  1  0
  4 12  1  0
  5 11  1  0
  5 14  1  0
  5 27  1  0
  6 17  1  0
  6 26  1  0
  7 13  1  0
  7 20  1  0
  8 17  1  0
  8 18  1  0
  9 11  1  0
 10 26  1  0
 10 28  1  0
 11 22  1  0
 12 22  1  0
 12 23  1  0
 13 25  2  0
 14 16  1  0
 14 20  1  0
 15 17  1  0
 15 29  1  0
 19 23  1  0
 21 23  1  0
 26 29  1  0
M  END
>  <ID>  (1) 
conformer_0

$$$$
