
     RDKit          3D

 30 30  0  0  0  0  0  0  0  0999 V2000
   38.1479   17.4869   39.0590 C   0  0  0  0  0  0  0  0  0  0  0  0
   32.0248   17.6445   34.8759 O   0  0  0  0  0  0  0  0  0  0  0  0
   29.4465   13.8832   37.2378 O   0  0  0  0  0  0  0  0  0  0  0  0
   32.8865   18.3007   35.9653 C   0  0  0  0  0  0  0  0  0  0  0  0
   37.7693   19.9938   34.7397 P   0  0  0  0  0  0  0  0  0  0  0  0
   40.4073   16.8264   38.3766 C   0  0  0  0  0  0  0  0  0  0  0  0
   37.9822   17.9923   36.6433 C   0  0  0  0  0  0  0  0  0  0  0  0
   39.2398   17.4387   36.2586 C   0  0  0  0  0  0  0  0  0  0  0  0
   31.0987   17.3273   37.7802 C   0  0  0  0  0  0  0  0  0  0  0  0
   38.5571   17.7965   33.8036 O   0  0  0  0  0  0  0  0  0  0  0  0
   39.4849   17.3354   34.7952 C   0  0  0  0  0  0  0  0  0  0  0  0
   31.0454   16.7606   39.0755 O   0  0  0  0  0  0  0  0  0  0  0  0
   33.3955   16.4476   37.6039 O   0  0  0  0  0  0  0  0  0  0  0  0
   38.6616   19.2456   33.5474 C   0  0  0  0  0  0  0  0  0  0  0  0
   36.7201   20.6845   33.9957 O   0  0  0  0  0  0  0  0  0  0  0  0
   39.4007   17.0577   39.2869 C   0  0  0  0  0  0  0  0  0  0  0  0
   37.2672   18.7680   35.6232 C   0  0  0  0  0  0  0  0  0  0  0  0
   40.2744   16.9911   37.0320 C   0  0  0  0  0  0  0  0  0  0  0  0
   32.3928   19.6353   35.8244 O   0  0  0  0  0  0  0  0  0  0  0  0
   34.2750   18.8025   36.8236 C   0  0  0  0  0  0  0  0  0  0  0  0
   35.2737   17.7537   36.3804 C   0  0  0  0  0  0  0  0  0  0  0  0
   32.4905   17.3891   37.2055 C   0  0  0  0  0  0  0  0  0  0  0  0
   39.7681   15.9018   34.4315 C   0  0  0  0  0  0  0  0  0  0  0  0
   38.3622   20.9111   35.6717 O   0  0  0  0  0  0  0  0  0  0  0  0
   35.9381   18.2948   35.1640 C   0  0  0  0  0  0  0  0  0  0  0  0
   37.5411   17.8816   37.9296 C   0  0  0  0  0  0  0  0  0  0  0  0
   30.8163   14.1560   37.1875 C   0  0  0  0  0  0  0  0  0  0  0  0
   30.9911   15.3615   36.2533 C   0  0  0  0  0  0  0  0  0  0  0  0
   30.1556   16.4863   36.8747 C   0  0  0  0  0  0  0  0  0  0  0  0
   30.4949   14.9166   35.0139 O   0  0  0  0  0  0  0  0  0  0  0  0
  1 16  1  0
  1 26  2  0
  2  4  1  0
  3 27  1  0
  4 19  1  0
  4 20  1  0
  4 22  1  0
  5 15  1  0
  5 17  1  0
  5 24  1  0
  6 16  2  0
  6 18  1  0
  7  8  1  0
  7 17  1  0
  7 26  1  0
  8 11  1  0
  8 18  2  0
  9 12  1  0
  9 22  1  0
  9 29  1  0
 10 11  1  0
 10 14  1  0
 11 23  1  0
 13 22  1  0
 17 25  1  0
 20 21  1  0
 21 25  1  0
 27 28  1  0
 28 29  1  0
 28 30  1  0
M  END
>  <ID>  (1) 
conformer_0

$$$$
