
     RDKit          3D

 15 15  0  0  0  0  0  0  0  0999 V2000
   38.5711   19.3107   35.6192 C   0  0  0  0  0  0  0  0  0  0  0  0
   32.1190   18.1923   36.8301 C   0  0  0  0  0  0  0  0  0  0  0  0
   30.9904   18.0168   37.5277 O   0  0  0  0  0  0  0  0  0  0  0  0
   31.9653   18.5582   35.3940 C   0  0  0  0  0  0  0  0  0  0  0  0
   39.7270   18.8378   35.8822 O   0  0  0  0  0  0  0  0  0  0  0  0
   38.2550   20.5411   35.7689 O   0  0  0  0  0  0  0  0  0  0  0  0
   37.2770   17.4772   36.5451 O   0  0  0  0  0  0  0  0  0  0  0  0
   35.8933   17.0402   36.8436 C   0  0  0  0  0  0  0  0  0  0  0  0
   34.6446   18.7786   35.5420 C   0  0  0  0  0  0  0  0  0  0  0  0
   36.0130   18.7091   34.8368 C   0  0  0  0  0  0  0  0  0  0  0  0
   37.4466   18.3186   35.3458 C   0  0  0  0  0  0  0  0  0  0  0  0
   34.7335   18.1059   36.9217 C   0  0  0  0  0  0  0  0  0  0  0  0
   33.3372   17.3660   37.2100 C   0  0  0  0  0  0  0  0  0  0  0  0
   30.8418   17.9438   34.8623 O   0  0  0  0  0  0  0  0  0  0  0  0
   34.1619   20.1270   35.5662 O   0  0  0  0  0  0  0  0  0  0  0  0
  1  5  2  0
  1  6  1  0
  1 11  1  0
  2  3  1  0
  2  4  1  0
  2 13  1  0
  4 14  1  0
  7  8  1  0
  7 11  1  0
  8 12  1  0
  9 10  1  0
  9 12  1  0
  9 15  1  0
 10 11  1  0
 12 13  1  0
M  END
>  <ID>  (1) 
conformer_0

$$$$
