
     RDKit          3D

 17 17  0  0  0  0  0  0  0  0999 V2000
   39.5790   17.0861   38.0366 C   0  0  0  0  0  0  0  0  0  0  0  0
   35.5836   17.8916   37.0794 O   0  0  0  0  0  0  0  0  0  0  0  0
   38.7057   18.8210   34.3050 O   0  0  0  0  0  0  0  0  0  0  0  0
   34.0573   17.2457   35.2134 O   0  0  0  0  0  0  0  0  0  0  0  0
   38.0590   18.2746   36.5870 C   0  0  0  0  0  0  0  0  0  0  0  0
   35.0746   19.0325   36.5584 C   0  0  0  0  0  0  0  0  0  0  0  0
   37.5664   20.3821   35.4516 O   0  0  0  0  0  0  0  0  0  0  0  0
   33.1395   20.2761   35.9105 O   0  0  0  0  0  0  0  0  0  0  0  0
   38.5509   16.4831   38.6789 N   0  0  0  0  0  0  0  0  0  0  0  0
   31.5910   17.8550   35.4834 C   0  0  0  0  0  0  0  0  0  0  0  0
   37.2579   16.8035   38.3323 C   0  0  0  0  0  0  0  0  0  0  0  0
   38.0366   19.1972   35.3998 C   0  0  0  0  0  0  0  0  0  0  0  0
   30.6195   18.0598   36.5097 O   0  0  0  0  0  0  0  0  0  0  0  0
   33.0284   17.7712   36.0378 C   0  0  0  0  0  0  0  0  0  0  0  0
   33.5545   19.1093   36.6230 C   0  0  0  0  0  0  0  0  0  0  0  0
   36.9640   17.6637   37.3137 C   0  0  0  0  0  0  0  0  0  0  0  0
   39.3679   17.9545   37.0156 C   0  0  0  0  0  0  0  0  0  0  0  0
  1  9  2  0
  1 17  1  0
  2  6  1  0
  2 16  1  0
  3 12  2  0
  4 14  1  0
  5 12  1  0
  5 16  1  0
  5 17  2  0
  6 15  1  0
  7 12  1  0
  8 15  1  0
  9 11  1  0
 10 13  1  0
 10 14  1  0
 11 16  2  0
 14 15  1  0
M  END
>  <ID>  (1) 
conformer_0

$$$$
