
     RDKit          3D

 29 31  0  0  0  0  0  0  0  0999 V2000
   30.4548   18.0002   35.5020 O   0  0  0  0  0  0  0  0  0  0  0  0
   37.9491   20.5909   35.5634 O   0  0  0  0  0  0  0  0  0  0  0  0
   34.0534   18.2101   36.0996 C   0  0  0  0  0  0  0  0  0  0  0  0
   34.7452   13.4428   38.9602 C   0  0  0  0  0  0  0  0  0  0  0  0
   33.4504   17.7872   37.4902 C   0  0  0  0  0  0  0  0  0  0  0  0
   33.4050   14.9767   37.8604 N   0  0  0  0  0  0  0  0  0  0  0  0
   32.0390   17.1655   37.2509 C   0  0  0  0  0  0  0  0  0  0  0  0
   35.5424   14.4212   38.3898 C   0  0  0  0  0  0  0  0  0  0  0  0
   32.2445   15.6229   37.0965 C   0  0  0  0  0  0  0  0  0  0  0  0
   35.2295   12.3951   39.7694 C   0  0  0  0  0  0  0  0  0  0  0  0
   39.3359   16.1455   35.4270 C   0  0  0  0  0  0  0  0  0  0  0  0
   34.7100   20.3215   35.3215 O   0  0  0  0  0  0  0  0  0  0  0  0
   37.2683   15.7969   38.1477 N   0  0  0  0  0  0  0  0  0  0  0  0
   39.1551   15.5981   36.8193 N   0  0  0  0  0  0  0  0  0  0  0  0
   29.8326   18.2305   38.0952 O   0  0  0  0  0  0  0  0  0  0  0  0
   39.6732   17.6519   35.6464 C   0  0  0  0  0  0  0  0  0  0  0  0
   38.5545   16.3483   37.8987 C   0  0  0  0  0  0  0  0  0  0  0  0
   38.6777   17.5385   39.2142 C   0  0  0  0  0  0  0  0  0  0  0  0
   37.0126   14.4323   38.3464 C   0  0  0  0  0  0  0  0  0  0  0  0
   34.7050   15.3502   37.7885 C   0  0  0  0  0  0  0  0  0  0  0  0
   32.7052   18.6220   35.4053 C   0  0  0  0  0  0  0  0  0  0  0  0
   38.4323   18.4012   35.6489 N   0  0  0  0  0  0  0  0  0  0  0  0
   37.6894   19.4149   35.1616 C   0  0  0  0  0  0  0  0  0  0  0  0
   36.3789   18.8581   34.5240 C   0  0  0  0  0  0  0  0  0  0  0  0
   40.8436   17.8472   36.6495 C   0  0  0  0  0  0  0  0  0  0  0  0
   35.2038   18.9936   35.4655 C   0  0  0  0  0  0  0  0  0  0  0  0
   31.6050   17.8453   35.9628 C   0  0  0  0  0  0  0  0  0  0  0  0
   33.4439   13.6983   38.6537 N   0  0  0  0  0  0  0  0  0  0  0  0
   30.8186   17.2088   38.2806 C   0  0  0  0  0  0  0  0  0  0  0  0
  1 27  2  0
  2 23  2  0
  3  5  1  0
  3 21  1  0
  3 26  1  0
  4  8  2  0
  4 10  1  0
  4 28  1  0
  5  7  1  0
  6  9  1  0
  6 20  1  0
  6 28  1  0
  7  9  1  0
  7 27  1  0
  7 29  1  0
  8 19  1  0
  8 20  1  0
 11 14  1  0
 11 16  1  0
 12 26  1  0
 13 17  2  0
 13 19  1  0
 14 17  1  0
 15 29  1  0
 16 22  1  0
 16 25  1  0
 17 18  1  0
 21 27  1  0
 22 23  1  0
 23 24  1  0
 24 26  1  0
M  END
>  <ID>  (1) 
conformer_0

$$$$
