
     RDKit          3D

 16 16  0  0  0  0  0  0  0  0999 V2000
   35.6399   18.6157   35.7045 O   0  0  0  0  0  0  0  0  0  0  0  0
   38.2320   20.8892   35.7668 O   0  0  0  0  0  0  0  0  0  0  0  0
   38.1901   19.6589   35.4547 C   0  0  0  0  0  0  0  0  0  0  0  0
   31.4891   18.3497   34.7205 O   0  0  0  0  0  0  0  0  0  0  0  0
   35.0158   17.0992   37.8539 O   0  0  0  0  0  0  0  0  0  0  0  0
   36.7234   17.8206   36.3729 C   0  0  0  0  0  0  0  0  0  0  0  0
   33.2917   18.0111   36.2049 C   0  0  0  0  0  0  0  0  0  0  0  0
   34.1110   16.8518   36.6884 C   0  0  0  0  0  0  0  0  0  0  0  0
   31.0342   17.9254   36.8798 O   0  0  0  0  0  0  0  0  0  0  0  0
   38.0132   18.7108   36.6245 C   0  0  0  0  0  0  0  0  0  0  0  0
   33.7692   20.3258   35.8566 O   0  0  0  0  0  0  0  0  0  0  0  0
   34.2515   18.9713   35.4636 C   0  0  0  0  0  0  0  0  0  0  0  0
   37.6223   17.0106   38.6041 C   0  0  0  0  0  0  0  0  0  0  0  0
   36.4379   17.1530   37.6770 C   0  0  0  0  0  0  0  0  0  0  0  0
   38.3488   19.1281   34.3075 O   0  0  0  0  0  0  0  0  0  0  0  0
   31.8355   18.1572   35.9141 C   0  0  0  0  0  0  0  0  0  0  0  0
  1  6  1  0
  1 12  1  0
  2  3  2  0
  3 10  1  0
  3 15  1  0
  4 16  2  0
  5  8  1  0
  5 14  1  0
  6 10  1  0
  6 14  1  0
  7  8  1  0
  7 12  1  0
  7 16  1  0
  9 16  1  0
 11 12  1  0
 13 14  1  0
M  END
>  <ID>  (1) 
conformer_0

$$$$
