
     RDKit          3D

 22 22  0  0  0  0  0  0  0  0999 V2000
   30.1443   17.9148   36.4862 O   0  0  0  0  0  0  0  0  0  0  0  0
   30.3834   16.4127   34.8703 O   0  0  0  0  0  0  0  0  0  0  0  0
   35.8159   16.4765   37.0538 C   0  0  0  0  0  0  0  0  0  0  0  0
   36.5648   18.3648   35.3935 C   0  0  0  0  0  0  0  0  0  0  0  0
   40.0368   19.2301   35.9274 O   0  0  0  0  0  1  0  0  0  0  0  0
   37.1620   17.0340   37.2850 O   0  0  0  0  0  0  0  0  0  0  0  0
   37.4629   20.5141   34.9374 O   0  0  0  0  0  0  0  0  0  0  0  0
   30.9043   17.1623   35.7846 C   0  0  0  0  0  0  0  0  0  0  0  0
   33.4530   17.5199   36.3501 C   0  0  0  0  0  0  0  0  0  0  0  0
   36.7981   19.5406   34.5000 C   0  0  0  0  0  0  0  0  0  0  0  0
   32.1434   16.5580   36.3715 C   0  0  0  0  0  0  0  0  0  0  0  0
   40.2516   16.7767   35.6774 O   0  0  0  0  0  0  0  0  0  0  0  0
   36.1275   19.5563   33.3794 O   0  0  0  0  0  0  0  0  0  0  0  0
   32.6607   15.2133   36.4060 O   0  0  0  0  0  0  0  0  0  0  0  0
   32.7898   18.9148   36.6109 C   0  0  0  0  0  0  0  0  0  0  0  0
   34.6628   18.1039   35.4744 C   0  0  0  0  0  0  0  0  0  0  0  0
   32.3945   19.4281   35.2862 O   0  0  0  0  0  0  0  0  0  0  0  0
   37.7432   17.6012   36.0233 C   0  0  0  0  0  0  0  0  0  0  0  0
   35.6218   18.6834   36.3644 O   0  0  0  0  0  0  0  0  0  0  0  0
   39.4948   17.8819   36.4055 P   0  0  0  0  0  4  0  0  0  0  0  0
   34.3583   16.8972   37.4983 C   0  0  0  0  0  0  0  0  0  0  0  0
   39.7828   17.7707   37.9103 O   0  0  0  0  0  0  0  0  0  0  0  0
  1  8  2  0
  2  8  1  0
  3  6  1  0
  3 21  1  0
  4 10  1  0
  4 18  1  0
  4 19  1  0
  5 20  2  0
  6 18  1  0
  7 10  2  0
  8 11  1  0
  9 11  1  0
  9 15  1  0
  9 16  1  0
  9 21  1  0
 10 13  1  0
 11 14  1  0
 12 20  1  0
 15 17  1  0
 16 19  1  0
 18 20  1  0
 20 22  1  0
M  END
>  <ID>  (1) 
conformer_0

$$$$
