
     RDKit          3D

 10  9  0  0  0  0  0  0  0  0999 V2000
   35.3202   19.0803   35.1811 C   0  0  0  0  0  0  0  0  0  0  0  0
   32.0196   18.7449   35.9227 N   0  0  0  0  0  0  0  0  0  0  0  0
   36.7311   18.5717   35.4927 C   0  0  0  0  0  0  0  0  0  0  0  0
   38.4100   20.0625   36.1460 O   0  0  0  0  0  0  0  0  0  0  0  0
   37.4308   20.4674   34.2379 O   0  0  0  0  0  0  0  0  0  0  0  0
   37.7010   19.7451   35.2300 C   0  0  0  0  0  0  0  0  0  0  0  0
   31.8909   18.2532   34.6952 O   0  0  0  0  0  0  0  0  0  0  0  0
   33.1198   19.4463   36.3294 C   0  0  0  0  0  0  0  0  0  0  0  0
   34.3854   18.6359   36.2866 C   0  0  0  0  0  0  0  0  0  0  0  0
   33.3460   20.7186   36.0539 O   0  0  0  0  0  0  0  0  0  0  0  0
  1  3  1  0
  1  9  1  0
  2  7  1  0
  2  8  1  0
  3  6  1  0
  4  6  2  0
  5  6  1  0
  8  9  1  0
  8 10  2  0
M  END
>  <ID>  (1) 
conformer_0

$$$$
