
     RDKit          3D

 22 23  0  0  0  0  0  0  0  0999 V2000
   37.1905   17.3748   36.3108 N   0  0  0  0  0  0  0  0  0  0  0  0
   35.6619   19.5851   34.9334 O   0  0  0  0  0  0  0  0  0  0  0  0
   36.1227   16.4064   35.9689 C   0  0  0  0  0  0  0  0  0  0  0  0
   33.0972   15.0989   35.3918 O   0  0  0  0  0  0  0  0  0  0  0  0
   37.7088   18.1714   35.1323 C   0  0  0  0  0  0  0  0  0  0  0  0
   33.7386   17.3720   35.8833 C   0  0  0  0  0  0  0  0  0  0  0  0
   31.9033   16.0329   37.2011 O   0  0  0  0  0  0  0  0  0  0  0  0
   37.4057   20.1156   33.6742 O   0  0  0  0  0  0  0  0  0  0  0  0
   39.5204   16.7530   36.0692 C   0  0  0  0  0  0  0  0  0  0  0  0
   31.3089   17.4948   35.2391 S   0  0  0  0  0  4  0  0  0  0  0  0
   31.2280   17.3596   33.7740 N   0  0  0  0  0  0  0  0  0  0  0  0
   37.1001   19.6631   34.9471 C   0  0  0  0  0  0  0  0  0  0  0  0
   34.8279   16.7016   36.6342 C   0  0  0  0  0  0  0  0  0  0  0  0
   30.0346   17.5817   35.8706 O   0  0  0  0  0  0  0  0  0  0  0  0
   38.3850   16.9974   37.1455 C   0  0  0  0  0  0  0  0  0  0  0  0
   31.9740   18.9346   35.4201 O   0  0  0  0  0  0  0  0  0  0  0  0
   38.9776   15.4999   35.2356 C   0  0  0  0  0  0  0  0  0  0  0  0
   32.4382   16.3874   35.8618 C   0  0  0  0  0  0  0  0  0  0  0  0
   39.2514   18.0038   35.1305 C   0  0  0  0  0  0  0  0  0  0  0  0
   33.2733   18.7940   36.1875 C   0  0  0  0  0  0  0  0  0  0  0  0
   37.6748   20.4492   35.9588 O   0  0  0  0  0  0  0  0  0  0  0  0
   35.0448   17.1038   37.9303 O   0  0  0  0  0  0  0  0  0  0  0  0
  1  3  1  0
  1  5  1  0
  1 15  1  0
  2 12  1  0
  3 13  1  0
  4 18  1  0
  5 12  1  0
  5 19  1  0
  6 13  1  0
  6 18  1  0
  6 20  1  0
  7 18  1  0
  8 12  1  0
  9 15  1  0
  9 17  1  0
  9 19  1  0
 10 11  1  0
 10 14  1  0
 10 16  1  0
 10 18  1  0
 12 21  1  0
 13 22  1  0
 16 20  1  0
M  END
>  <ID>  (1) 
conformer_0

$$$$
