
     RDKit          3D

 27 30  0  0  0  0  0  0  0  0999 V2000
   31.6392   18.9939   35.0954 O   0  0  0  0  0  0  0  0  0  0  0  0
   37.0192   18.0353   36.7999 O   0  0  0  0  0  0  0  0  0  0  0  0
   30.2574   18.0266   37.2729 O   0  0  0  0  0  0  0  0  0  0  0  0
   33.6234   16.8198   37.8889 C   0  0  0  0  0  0  0  0  0  0  0  0
   38.3648   18.3269   34.8641 C   0  0  0  0  0  0  0  0  0  0  0  0
   35.7782   19.6444   33.2128 C   0  0  0  0  0  0  0  0  0  0  0  0
   39.1120   16.9107   37.2586 C   0  0  0  0  0  0  0  0  0  0  0  0
   36.7039   16.5590   37.3822 C   0  0  0  0  0  0  0  0  0  0  0  0
   38.5211   18.1641   36.4444 C   0  0  0  0  0  0  0  0  0  0  0  0
   36.0516   15.3674   38.0487 C   0  0  0  0  0  0  0  0  0  0  0  0
   37.9117   20.6453   35.4655 O   0  0  0  0  0  0  0  0  0  0  0  0
   39.2310   17.3777   38.6084 O   0  0  0  0  0  0  0  0  0  0  0  0
   36.2010   21.0704   33.2420 N   0  0  0  0  0  0  0  0  0  0  0  0
   39.8057   18.9533   36.5334 O   0  0  0  0  0  0  0  0  0  0  0  0
   38.8110   13.9200   36.2782 O   0  0  0  0  0  0  0  0  0  0  0  0
   38.0730   14.5397   37.1120 C   0  0  0  0  0  0  0  0  0  0  0  0
   36.8517   14.1754   37.6626 O   0  0  0  0  0  0  0  0  0  0  0  0
   37.4910   19.5639   34.8475 C   0  0  0  0  0  0  0  0  0  0  0  0
   32.2678   17.0149   38.0427 C   0  0  0  0  0  0  0  0  0  0  0  0
   33.6545   18.2558   36.0003 C   0  0  0  0  0  0  0  0  0  0  0  0
   34.3336   17.4387   36.9085 C   0  0  0  0  0  0  0  0  0  0  0  0
   34.5336   18.9101   35.0751 O   0  0  0  0  0  0  0  0  0  0  0  0
   38.0465   15.9323   36.9890 C   0  0  0  0  0  0  0  0  0  0  0  0
   35.7888   17.4213   36.6687 C   0  0  0  0  0  0  0  0  0  0  0  0
   32.2865   18.3785   36.0936 C   0  0  0  0  0  0  0  0  0  0  0  0
   31.5791   17.8095   37.1566 C   0  0  0  0  0  0  0  0  0  0  0  0
   35.9873   19.1662   34.7169 C   0  0  0  0  0  0  0  0  0  0  0  0
  1 25  1  0
  2  9  1  0
  2 24  1  0
  3 26  1  0
  4 19  1  0
  4 21  2  0
  5  9  1  0
  5 18  1  0
  6 13  1  0
  6 27  1  0
  7  9  1  0
  7 12  1  0
  7 23  1  0
  8 10  1  0
  8 23  1  0
  8 24  1  0
  9 14  1  0
 10 17  1  0
 11 18  1  0
 15 16  2  0
 16 17  1  0
 16 23  1  0
 18 27  1  0
 19 26  2  0
 20 21  1  0
 20 22  1  0
 20 25  2  0
 21 24  1  0
 22 27  1  0
 25 26  1  0
M  END
>  <ID>  (1) 
conformer_0

$$$$
