
     RDKit          3D

 13 12  0  0  0  0  0  0  0  0999 V2000
   33.1386   19.6849   36.3418 O   0  0  0  0  0  0  0  0  0  0  0  0
   37.9920   18.7238   37.0343 O   0  0  0  0  0  1  0  0  0  0  0  0
   37.7921   17.2461   35.0551 O   0  0  0  0  0  0  0  0  0  0  0  0
   37.3193   18.5711   35.7458 P   0  0  0  0  0  4  0  0  0  0  0  0
   32.7950   18.3445   36.5177 C   0  0  0  0  0  0  0  0  0  0  0  0
   33.6203   17.4137   35.7338 N   0  0  0  0  0  0  0  0  0  0  0  0
   35.6601   18.7321   35.8931 C   0  0  0  0  0  0  0  0  0  0  0  0
   31.3371   18.0540   36.0993 C   0  0  0  0  0  0  0  0  0  0  0  0
   37.7051   19.8059   34.7715 C   0  0  0  0  0  0  0  0  0  0  0  0
   31.2279   18.6503   34.7810 O   0  0  0  0  0  0  0  0  0  0  0  0
   34.9983   17.3592   36.1022 C   0  0  0  0  0  0  0  0  0  0  0  0
   36.7238   19.9615   33.6358 C   0  0  0  0  0  0  0  0  0  0  0  0
   38.1752   20.8321   35.4240 O   0  0  0  0  0  0  0  0  0  0  0  0
  1  5  1  0
  2  4  2  0
  3  4  1  0
  4  7  1  0
  4  9  1  0
  5  6  1  0
  5  8  1  0
  6 11  1  0
  7 11  1  0
  8 10  1  0
  9 12  1  0
  9 13  1  0
M  END
>  <ID>  (1) 
conformer_0

$$$$
