
     RDKit          3D

 15 15  0  0  0  0  0  0  0  0999 V2000
   38.0917   19.4470   35.9330 P   0  0  0  0  0  4  0  0  0  0  0  0
   37.6000   19.1349   37.3569 O   0  0  0  0  0  1  0  0  0  0  0  0
   32.0505   18.0932   37.0677 C   0  0  0  0  0  0  0  0  0  0  0  0
   35.7118   19.7412   34.3087 O   0  0  0  0  0  0  0  0  0  0  0  0
   34.9916   17.8311   36.2467 C   0  0  0  0  0  0  0  0  0  0  0  0
   36.8218   18.8684   34.6627 C   0  0  0  0  0  0  0  0  0  0  0  0
   30.8521   18.4376   37.4397 O   0  0  0  0  0  0  0  0  0  0  0  0
   34.1784   19.1217   36.3305 C   0  0  0  0  0  0  0  0  0  0  0  0
   39.3849   18.7091   35.6116 O   0  0  0  0  0  0  0  0  0  0  0  0
   36.2390   17.5699   35.3621 C   0  0  0  0  0  0  0  0  0  0  0  0
   38.1858   20.8965   35.7943 O   0  0  0  0  0  0  0  0  0  0  0  0
   34.0662   16.6358   36.3560 C   0  0  0  0  0  0  0  0  0  0  0  0
   31.6551   18.8436   34.8572 O   0  0  0  0  0  0  0  0  0  0  0  0
   32.9312   16.9164   37.3925 C   0  0  0  0  0  0  0  0  0  0  0  0
   32.6758   18.9027   35.8996 C   0  0  0  0  0  0  0  0  0  0  0  0
  1  2  2  0
  1  6  1  0
  1  9  1  0
  1 11  1  0
  3  7  1  0
  3 14  1  0
  3 15  1  0
  4  6  1  0
  5  8  1  0
  5 10  1  0
  5 12  1  0
  6 10  1  0
  8 15  1  0
 12 14  1  0
 13 15  1  0
M  END
>  <ID>  (1) 
conformer_0

$$$$
