
     RDKit          3D

 22 23  0  0  0  0  0  0  0  0999 V2000
   33.7305   16.3078   37.9742 C   0  0  0  0  0  0  0  0  0  0  0  0
   37.5800   19.5633   36.0206 C   0  0  0  0  0  0  0  0  0  0  0  0
   32.4500   17.8312   36.4921 C   0  0  0  0  0  0  0  0  0  0  0  0
   31.2318   15.9776   37.5154 O   0  0  0  0  0  0  0  0  0  0  0  0
   32.3911   16.5495   37.3728 C   0  0  0  0  0  0  0  0  0  0  0  0
   34.6211   17.3063   37.5837 O   0  0  0  0  0  0  0  0  0  0  0  0
   39.0015   17.8048   37.0545 C   0  0  0  0  0  0  0  0  0  0  0  0
   37.8833   20.7855   35.7063 O   0  0  0  0  0  0  0  0  0  0  0  0
   39.8944   16.7089   36.8272 C   0  0  0  0  0  0  0  0  0  0  0  0
   30.1444   17.9989   35.9344 O   0  0  0  0  0  0  0  0  0  0  0  0
   33.9636   18.2413   36.6100 C   0  0  0  0  0  0  0  0  0  0  0  0
   38.8400   18.0175   34.4901 C   0  0  0  0  0  0  0  0  0  0  0  0
   40.6834   16.3900   37.8412 O   0  0  0  0  0  0  0  0  0  0  0  0
   32.2170   18.4853   34.9044 O   0  0  0  0  0  0  0  0  0  0  0  0
   34.8648   20.0057   35.1153 O   0  0  0  0  0  0  0  0  0  0  0  0
   39.3734   16.6739   34.3679 C   0  0  0  0  0  0  0  0  0  0  0  0
   31.3042   17.7351   35.5110 C   0  0  0  0  0  0  0  0  0  0  0  0
   38.6690   18.6012   35.8362 C   0  0  0  0  0  0  0  0  0  0  0  0
   33.8482   15.6285   39.0629 O   0  0  0  0  0  0  0  0  0  0  0  0
   36.3584   19.0325   36.6772 C   0  0  0  0  0  0  0  0  0  0  0  0
   35.1476   18.7065   35.7250 C   0  0  0  0  0  0  0  0  0  0  0  0
   39.9231   16.0669   35.5757 C   0  0  0  0  0  0  0  0  0  0  0  0
  1  5  1  0
  1  6  1  0
  1 19  2  0
  2  8  1  0
  2 18  1  0
  2 20  1  0
  3  5  1  0
  3 11  1  0
  3 17  1  0
  4  5  1  0
  6 11  1  0
  7  9  1  0
  7 18  1  0
  9 13  1  0
  9 22  1  0
 10 17  1  0
 11 21  1  0
 12 16  1  0
 12 18  1  0
 14 17  1  0
 15 21  1  0
 16 22  2  0
 20 21  1  0
M  END
>  <ID>  (1) 
conformer_0

$$$$
