
     RDKit          3D

 25 25  0  0  0  0  0  0  0  0999 V2000
   34.5094   16.9954   36.0662 C   0  0  0  0  0  0  0  0  0  0  0  0
   36.0991   18.3282   34.8626 O   0  0  0  0  0  0  0  0  0  0  0  0
   37.0899   17.3820   35.2555 C   0  0  0  0  0  0  0  0  0  0  0  0
   30.4851   17.3315   36.9773 C   0  0  0  0  0  0  0  0  0  0  0  0
   37.2794   14.4077   38.5653 C   0  0  0  0  0  0  0  0  0  0  0  0
   33.1218   16.7039   35.6754 O   0  0  0  0  0  0  0  0  0  0  0  0
   38.2537   17.7647   39.7226 O   0  0  0  0  0  0  0  0  0  0  0  0
   38.9828   18.4369   36.6115 C   0  0  0  0  0  0  0  0  0  0  0  0
   38.1803   17.0775   33.8333 S   0  0  0  0  0  0  0  0  0  0  0  0
   31.9912   17.2543   36.5099 C   0  0  0  0  0  0  0  0  0  0  0  0
   34.6419   17.0603   37.4648 O   0  0  0  0  0  0  0  0  0  0  0  0
   32.5824   18.6433   36.9030 C   0  0  0  0  0  0  0  0  0  0  0  0
   40.1417   16.7774   38.7369 C   0  0  0  0  0  0  0  0  0  0  0  0
   37.1784   14.8354   36.3115 O   0  0  0  0  0  0  0  0  0  0  0  0
   33.8235   20.5731   35.8646 O   0  0  0  0  0  0  0  0  0  0  0  0
   29.7336   17.8766   36.2126 O   0  0  0  0  0  0  0  0  0  0  0  0
   37.8942   20.4011   35.9369 C   0  0  0  0  0  0  0  0  0  0  0  0
   37.8624   16.6685   37.7295 N   0  0  0  0  0  0  0  0  0  0  0  0
   38.9465   19.5243   35.7966 N   0  0  0  0  0  0  0  0  0  0  0  0
   37.7985   17.5531   36.5580 C   0  0  0  0  0  0  0  0  0  0  0  0
   34.7770   18.3841   35.4656 C   0  0  0  0  0  0  0  0  0  0  0  0
   30.2412   17.0670   38.1517 O   0  0  0  0  0  0  0  0  0  0  0  0
   38.7364   17.0594   38.7657 C   0  0  0  0  0  0  0  0  0  0  0  0
   33.5243   19.1733   35.8813 C   0  0  0  0  0  0  0  0  0  0  0  0
   37.5039   15.3042   37.4663 C   0  0  0  0  0  0  0  0  0  0  0  0
  1  6  1  0
  1 11  1  0
  1 21  1  0
  2  3  1  0
  2 21  1  0
  3  9  1  0
  3 20  1  0
  4 10  1  0
  4 16  2  0
  4 22  1  0
  5 25  1  0
  6 10  1  0
  7 23  2  0
  8 19  1  0
  8 20  1  0
 10 12  1  0
 12 24  1  0
 13 23  1  0
 14 25  2  0
 15 24  1  0
 17 19  1  0
 18 20  1  0
 18 23  1  0
 18 25  1  0
 21 24  1  0
M  END
>  <ID>  (1) 
conformer_0

$$$$
