
     RDKit          3D

 23 24  0  0  0  0  0  0  0  0999 V2000
   39.1436   15.8555   37.8918 O   0  0  0  0  0  1  0  0  0  0  0  0
   36.4703   17.7071   37.5135 C   0  0  0  0  0  0  0  0  0  0  0  0
   31.6594   17.7591   36.9288 C   0  0  0  0  0  0  0  0  0  0  0  0
   34.0862   16.8982   37.9797 N   0  0  0  0  0  0  0  0  0  0  0  0
   35.5752   18.3912   35.0261 C   0  0  0  0  0  0  0  0  0  0  0  0
   37.9002   18.1574   37.2875 C   0  0  0  0  0  0  0  0  0  0  0  0
   39.1147   17.3537   38.2405 P   0  0  0  0  0  4  0  0  0  0  0  0
   30.7108   17.8155   35.2707 C   0  0  0  0  0  0  0  0  0  0  0  0
   37.9719   19.1832   34.9358 C   0  0  0  0  0  0  0  0  0  0  0  0
   30.4450   18.2122   36.5626 O   0  0  0  0  0  0  0  0  0  0  0  0
   39.0114   19.0106   34.0245 O   0  0  0  0  0  0  0  0  0  0  0  0
   36.5587   19.0137   34.1157 C   0  0  0  0  0  0  0  0  0  0  0  0
   38.0388   20.3607   35.6229 O   0  0  0  0  0  0  0  0  0  0  0  0
   32.9304   16.4842   38.3968 C   0  0  0  0  0  0  0  0  0  0  0  0
   35.5001   18.2833   36.5292 C   0  0  0  0  0  0  0  0  0  0  0  0
   32.9021   18.3336   36.5241 C   0  0  0  0  0  0  0  0  0  0  0  0
   34.1200   17.8510   37.0221 C   0  0  0  0  0  0  0  0  0  0  0  0
   40.4759   17.9714   37.9515 O   0  0  0  0  0  0  0  0  0  0  0  0
   32.8921   19.4718   35.7137 O   0  0  0  0  0  0  0  0  0  0  0  0
   38.0091   17.9793   35.8294 N   0  0  0  0  0  0  0  0  0  0  0  0
   31.7379   16.8296   37.9213 N   0  0  0  0  0  0  0  0  0  0  0  0
   36.1251   20.0599   33.2784 O   0  0  0  0  0  0  0  0  0  0  0  0
   38.7902   17.5335   39.7808 O   0  0  0  0  0  0  0  0  0  0  0  0
  1  7  2  0
  2  6  1  0
  2 15  1  0
  3 10  1  0
  3 16  2  0
  3 21  1  0
  4 14  1  0
  4 17  2  0
  5 12  1  0
  5 15  1  0
  6  7  1  0
  6 20  1  0
  7 18  1  0
  7 23  1  0
  8 10  1  0
  9 11  1  0
  9 12  1  0
  9 13  1  0
  9 20  1  0
 12 22  1  0
 14 21  2  0
 15 17  1  0
 16 17  1  0
 16 19  1  0
M  END
>  <ID>  (1) 
conformer_0

$$$$
