
     RDKit          3D

 21 22  0  0  0  0  0  0  0  0999 V2000
   34.1267   16.1365   38.4678 O   0  0  0  0  0  0  0  0  0  0  0  0
   38.0880   17.7164   37.0893 C   0  0  0  0  0  0  0  0  0  0  0  0
   38.7850   15.3998   36.2127 C   0  0  0  0  0  0  0  0  0  0  0  0
   38.1328   20.3784   36.0573 O   0  0  0  0  0  0  0  0  0  0  0  0
   31.7844   19.2802   34.8091 O   0  0  0  0  0  0  0  0  0  0  0  0
   32.4377   18.4773   35.6737 N   0  0  0  0  0  0  0  0  0  0  0  0
   39.8883   16.4003   38.1971 C   0  0  0  0  0  0  0  0  0  0  0  0
   32.2261   16.8634   37.3573 C   0  0  0  0  0  0  0  0  0  0  0  0
   33.5781   16.8952   37.5751 C   0  0  0  0  0  0  0  0  0  0  0  0
   30.2979   17.5457   36.1960 O   0  0  0  0  0  0  0  0  0  0  0  0
   36.4006   19.8133   34.8218 O   0  0  0  0  0  0  0  0  0  0  0  0
   38.7919   17.3657   38.2755 O   0  0  0  0  0  0  0  0  0  0  0  0
   39.3106   15.1319   37.6412 C   0  0  0  0  0  0  0  0  0  0  0  0
   37.2497   16.8001   34.9581 O   0  0  0  0  0  0  0  0  0  0  0  0
   36.7831   18.6196   36.9181 C   0  0  0  0  0  0  0  0  0  0  0  0
   37.9182   16.5689   36.1353 C   0  0  0  0  0  0  0  0  0  0  0  0
   34.3936   17.7230   36.8273 C   0  0  0  0  0  0  0  0  0  0  0  0
   35.7493   17.6894   37.0841 O   0  0  0  0  0  0  0  0  0  0  0  0
   37.1289   19.6866   35.8740 C   0  0  0  0  0  0  0  0  0  0  0  0
   31.6129   17.6193   36.4064 C   0  0  0  0  0  0  0  0  0  0  0  0
   33.8091   18.5114   35.8649 C   0  0  0  0  0  0  0  0  0  0  0  0
  1  9  1  0
  2 12  1  0
  2 15  1  0
  2 16  1  0
  3 13  1  0
  3 16  1  0
  4 19  2  0
  5  6  1  0
  6 20  1  0
  6 21  1  0
  7 12  1  0
  7 13  1  0
  8  9  2  0
  8 20  1  0
  9 17  1  0
 10 20  2  0
 11 19  1  0
 14 16  1  0
 15 18  1  0
 15 19  1  0
 17 18  1  0
 17 21  2  0
M  END
>  <ID>  (1) 
conformer_0

$$$$
