
     RDKit          3D

 25 27  0  0  0  0  0  0  0  0999 V2000
   33.7438   17.2107   36.4234 C   0  0  0  0  0  0  0  0  0  0  0  0
   39.6373   17.9358   33.6854 C   0  0  0  0  0  0  0  0  0  0  0  0
   39.8525   19.5672   35.4295 O   0  0  0  0  0  0  0  0  0  0  0  0
   30.4347   18.2766   35.2390 O   0  0  0  0  0  0  0  0  0  0  0  0
   37.6801   18.3020   35.1626 C   0  0  0  0  0  0  0  0  0  0  0  0
   34.3221   19.5598   35.9915 C   0  0  0  0  0  0  0  0  0  0  0  0
   33.1906   15.8554   35.7125 C   0  0  0  0  0  0  0  0  0  0  0  0
   31.6320   17.6400   35.1247 C   0  0  0  0  0  0  0  0  0  0  0  0
   38.7311   17.1635   39.5326 O   0  0  0  0  0  0  0  0  0  0  0  0
   31.6029   16.0939   35.4243 C   0  0  0  0  0  0  0  0  0  0  0  0
   33.8872   16.8394   37.8211 O   0  0  0  0  0  0  0  0  0  0  0  0
   37.2654   20.0296   36.8444 O   0  0  0  0  0  0  0  0  0  0  0  0
   33.2515   14.6177   36.4840 O   0  0  0  0  0  0  0  0  0  0  0  0
   38.0479   17.4281   38.5460 C   0  0  0  0  0  0  0  0  0  0  0  0
   34.9189   18.2184   36.2514 C   0  0  0  0  0  0  0  0  0  0  0  0
   37.4217   18.6506   36.6473 C   0  0  0  0  0  0  0  0  0  0  0  0
   38.5987   18.1030   37.4040 C   0  0  0  0  0  0  0  0  0  0  0  0
   32.8609   19.5217   36.2977 C   0  0  0  0  0  0  0  0  0  0  0  0
   36.6932   17.2326   38.3025 O   0  0  0  0  0  0  0  0  0  0  0  0
   31.3653   15.4507   34.1531 O   0  0  0  0  0  0  0  0  0  0  0  0
   32.4684   18.0856   36.3407 C   0  0  0  0  0  0  0  0  0  0  0  0
   36.1744   17.9349   37.1412 C   0  0  0  0  0  0  0  0  0  0  0  0
   39.0264   18.7317   34.7570 C   0  0  0  0  0  0  0  0  0  0  0  0
   38.8223   18.2543   32.4728 F   0  0  0  0  0  0  0  0  0  0  0  0
   36.6198   18.7459   34.1488 C   0  0  0  0  0  0  0  0  0  0  0  0
  1  7  1  0
  1 11  1  0
  1 15  1  0
  1 21  1  0
  2 23  1  0
  2 24  1  0
  3 23  1  0
  4  8  1  0
  5 16  1  0
  5 23  1  0
  5 25  1  0
  6 15  1  0
  6 18  1  0
  7 10  1  0
  7 13  1  0
  8 10  1  0
  8 21  1  0
  9 14  2  0
 10 20  1  0
 12 16  1  0
 14 17  1  0
 14 19  1  0
 15 22  1  0
 16 17  1  0
 16 22  1  0
 18 21  1  0
 19 22  1  0
M  END
>  <ID>  (1) 
conformer_0

$$$$
