
     RDKit          3D

 25 25  0  0  0  0  0  0  0  0999 V2000
   40.5976   17.7536   37.2459 C   0  0  0  0  0  0  0  0  0  0  0  0
   30.7263   18.0300   38.4566 O   0  0  0  0  0  0  0  0  0  0  0  0
   30.5335   17.9444   34.7986 O   0  0  0  0  0  0  0  0  0  0  0  0
   33.9008   18.8227   36.3791 C   0  0  0  0  0  0  0  0  0  0  0  0
   37.9799   20.8146   35.6889 O   0  0  0  0  0  1  0  0  0  0  0  0
   39.7152   18.2066   36.3541 C   0  0  0  0  0  0  0  0  0  0  0  0
   35.4214   18.8609   36.6211 C   0  0  0  0  0  0  0  0  0  0  0  0
   34.9885   16.6210   37.0764 C   0  0  0  0  0  0  0  0  0  0  0  0
   32.0519   15.3737   37.0084 O   0  0  0  0  0  0  0  0  0  0  0  0
   39.0942   17.2027   39.0774 C   0  0  0  0  0  0  0  0  0  0  0  0
   31.6816   16.6604   36.6962 C   0  0  0  0  0  0  0  0  0  0  0  0
   38.6621   19.1384   33.7792 O   0  0  0  0  0  0  0  0  0  0  0  0
   33.5296   20.1341   35.8876 O   0  0  0  0  0  0  0  0  0  0  0  0
   35.3756   15.3635   37.5084 O   0  0  0  0  0  0  0  0  0  0  0  0
   30.4086   17.1765   37.2984 C   0  0  0  0  0  0  0  0  0  0  0  0
   37.5009   17.7997   37.2851 C   0  0  0  0  0  0  0  0  0  0  0  0
   37.8929   17.4079   38.4985 C   0  0  0  0  0  0  0  0  0  0  0  0
   38.3725   18.3493   36.3583 C   0  0  0  0  0  0  0  0  0  0  0  0
   40.3434   17.3253   38.5257 C   0  0  0  0  0  0  0  0  0  0  0  0
   36.0607   17.5816   36.9485 O   0  0  0  0  0  0  0  0  0  0  0  0
   37.7912   19.4335   35.0356 P   0  0  0  0  0  4  0  0  0  0  0  0
   36.3435   19.4603   34.2988 O   0  0  0  0  0  0  0  0  0  0  0  0
   31.7632   18.4816   35.2626 C   0  0  0  0  0  0  0  0  0  0  0  0
   32.8070   17.6370   36.0581 C   0  0  0  0  0  0  0  0  0  0  0  0
   34.0089   16.5435   35.8720 C   0  0  0  0  0  0  0  0  0  0  0  0
  1  6  2  0
  1 19  1  0
  2 15  1  0
  3 23  1  0
  4  7  1  0
  4 13  1  0
  4 24  1  0
  5 21  2  0
  6 18  1  0
  8 14  1  0
  8 20  1  0
  8 25  1  0
  9 11  1  0
 10 17  1  0
 10 19  2  0
 11 15  1  0
 11 24  1  0
 12 21  1  0
 16 17  2  0
 16 18  1  0
 16 20  1  0
 18 21  1  0
 21 22  1  0
 23 24  1  0
 24 25  1  0
M  END
>  <ID>  (1) 
conformer_0

$$$$
