
     RDKit          3D

 14 14  0  0  0  0  0  0  0  0999 V2000
   31.7881   18.2723   36.1250 C   0  0  0  0  0  0  0  0  0  0  0  0
   36.7219   18.7963   35.4123 C   0  0  0  0  0  0  0  0  0  0  0  0
   39.1500   18.6984   36.0676 C   0  0  0  0  0  0  0  0  0  0  0  0
   36.8632   17.2292   35.5325 C   0  0  0  0  0  0  0  0  0  0  0  0
   34.3150   18.1891   36.0415 C   0  0  0  0  0  0  0  0  0  0  0  0
   35.5448   19.0146   36.3917 C   0  0  0  0  0  0  0  0  0  0  0  0
   38.0969   20.7930   35.7495 O   0  0  0  0  0  0  0  0  0  0  0  0
   33.4665   20.4446   36.0496 O   0  0  0  0  0  0  0  0  0  0  0  0
   31.3091   18.8118   34.8627 O   0  0  0  0  0  0  0  0  0  0  0  0
   37.9719   19.4622   35.7631 C   0  0  0  0  0  0  0  0  0  0  0  0
   33.9227   17.0661   35.4078 O   0  0  0  0  0  0  0  0  0  0  0  0
   38.9490   17.4593   36.8075 C   0  0  0  0  0  0  0  0  0  0  0  0
   37.5513   17.0438   36.8931 N   0  0  0  0  0  0  0  0  0  0  0  0
   33.0635   19.0800   36.4497 C   0  0  0  0  0  0  0  0  0  0  0  0
  1  9  1  0
  1 14  1  0
  2  4  1  0
  2  6  1  0
  2 10  1  0
  3 10  1  0
  3 12  1  0
  4 13  1  0
  5  6  1  0
  5 11  1  0
  5 14  1  0
  7 10  1  0
  8 14  1  0
 12 13  1  0
M  END
>  <ID>  (1) 
conformer_0

$$$$
