
     RDKit          3D

 19 20  0  0  0  0  0  0  0  0999 V2000
   39.3021   17.6289   37.3474 C   0  0  0  0  0  0  0  0  0  0  0  0
   31.4197   18.7301   34.6256 O   0  0  0  0  0  0  0  0  0  0  0  0
   34.7666   17.3233   37.3823 C   0  0  0  0  0  0  0  0  0  0  0  0
   38.1179   16.8938   39.3113 O   0  0  0  0  0  0  0  0  0  0  0  0
   40.2675   17.7597   38.2556 O   0  0  0  0  0  0  0  0  0  0  0  0
   29.8399   17.6794   36.5987 O   0  0  0  0  0  0  0  0  0  0  0  0
   37.8753   18.9125   35.4524 C   0  0  0  0  0  0  0  0  0  0  0  0
   32.2758   17.6089   37.5893 C   0  0  0  0  0  0  0  0  0  0  0  0
   37.9440   17.2785   37.9817 C   0  0  0  0  0  0  0  0  0  0  0  0
   39.1152   17.8985   35.8459 C   0  0  0  0  0  0  0  0  0  0  0  0
   33.3106   17.5781   35.4251 N   0  0  0  0  0  0  0  0  0  0  0  0
   38.2540   20.1741   35.8618 O   0  0  0  0  0  0  0  0  0  0  0  0
   31.8211   17.4758   35.2194 C   0  0  0  0  0  0  0  0  0  0  0  0
   36.3600   18.7414   36.0016 C   0  0  0  0  0  0  0  0  0  0  0  0
   35.8267   17.2426   36.1874 C   0  0  0  0  0  0  0  0  0  0  0  0
   33.5309   18.1185   36.8579 C   0  0  0  0  0  0  0  0  0  0  0  0
   37.7433   18.7862   33.9926 O   0  0  0  0  0  0  0  0  0  0  0  0
   31.1441   17.3604   36.5841 C   0  0  0  0  0  0  0  0  0  0  0  0
   37.0717   16.4837   36.8981 C   0  0  0  0  0  0  0  0  0  0  0  0
  1  5  1  0
  1  9  1  0
  1 10  1  0
  2 13  1  0
  3 15  1  0
  3 16  1  0
  4  9  1  0
  6 18  1  0
  7 10  1  0
  7 12  1  0
  7 14  1  0
  7 17  1  0
  8 16  1  0
  8 18  1  0
  9 19  1  0
 11 13  1  0
 11 16  1  0
 13 18  1  0
 14 15  1  0
 15 19  1  0
M  END
>  <ID>  (1) 
conformer_0

$$$$
