
     RDKit          3D

 17 18  0  0  0  0  0  0  0  0999 V2000
   35.3670   19.9974   34.5989 O   0  0  0  0  0  0  0  0  0  0  0  0
   35.7037   18.6814   35.0849 C   0  0  0  0  0  0  0  0  0  0  0  0
   33.6132   17.1312   35.9737 C   0  0  0  0  0  0  0  0  0  0  0  0
   38.0327   16.0945   38.5180 C   0  0  0  0  0  0  0  0  0  0  0  0
   38.4268   19.5859   35.5580 C   0  0  0  0  0  0  0  0  0  0  0  0
   31.4765   18.3983   35.1250 O   0  0  0  0  0  0  0  0  0  0  0  0
   30.4988   18.4168   37.7758 O   0  0  0  0  0  0  0  0  0  0  0  0
   37.2554   18.6305   35.4336 C   0  0  0  0  0  0  0  0  0  0  0  0
   31.4715   17.5292   37.3393 C   0  0  0  0  0  0  0  0  0  0  0  0
   38.1815   20.8069   35.7924 O   0  0  0  0  0  0  0  0  0  0  0  0
   38.4978   16.8564   37.3021 C   0  0  0  0  0  0  0  0  0  0  0  0
   33.4302   19.0159   36.3747 C   0  0  0  0  0  0  0  0  0  0  0  0
   35.8846   17.3439   37.3312 S   0  0  0  0  0  0  0  0  0  0  0  0
   34.7688   18.2025   36.1975 C   0  0  0  0  0  0  0  0  0  0  0  0
   39.6346   19.1631   35.4876 O   0  0  0  0  0  0  0  0  0  0  0  0
   37.4390   17.4946   36.4664 C   0  0  0  0  0  0  0  0  0  0  0  0
   32.2920   17.9761   36.1645 C   0  0  0  0  0  0  0  0  0  0  0  0
  1  2  1  0
  2  8  1  0
  2 14  1  0
  3 14  1  0
  3 17  1  0
  4 11  1  0
  5  8  1  0
  5 10  2  0
  5 15  1  0
  6 17  1  0
  7  9  1  0
  8 16  1  0
  9 17  1  0
 11 16  1  0
 12 14  1  0
 12 17  1  0
 13 14  1  0
 13 16  1  0
M  END
>  <ID>  (1) 
conformer_0

$$$$
