
     RDKit          3D

 20 20  0  0  0  0  0  0  0  0999 V2000
   37.0328   19.5295   35.4814 C   0  0  0  0  0  0  0  0  0  0  0  0
   36.4173   16.1022   36.5574 O   0  0  0  0  0  0  0  0  0  0  0  0
   38.9280   17.3871   38.0831 C   0  0  0  0  0  0  0  0  0  0  0  0
   35.6376   19.4538   35.0607 N   0  0  0  0  0  0  0  0  0  0  0  0
   39.8252   16.5364   38.2985 O   0  0  0  0  0  0  0  0  0  0  0  0
   35.3614   16.7282   35.9549 C   0  0  0  0  0  0  0  0  0  0  0  0
   30.1511   18.0207   37.0675 O   0  0  0  0  0  0  0  0  0  0  0  0
   39.9064   18.4639   36.1514 C   0  0  0  0  0  0  0  0  0  0  0  0
   38.7154   17.8698   36.7227 C   0  0  0  0  0  0  0  0  0  0  0  0
   37.6618   20.6199   35.3603 O   0  0  0  0  0  0  0  0  0  0  0  0
   33.8054   18.5406   36.6318 C   0  0  0  0  0  0  0  0  0  0  0  0
   32.8316   16.2289   36.3270 C   0  0  0  0  0  0  0  0  0  0  0  0
   31.4538   18.0322   37.4498 C   0  0  0  0  0  0  0  0  0  0  0  0
   32.4682   17.7322   36.3088 C   0  0  0  0  0  0  0  0  0  0  0  0
   31.6937   15.1771   37.2165 S   0  0  0  0  0  0  0  0  0  0  0  0
   38.1281   17.8154   39.0478 O   0  0  0  0  0  0  0  0  0  0  0  0
   32.0099   18.4584   35.1458 O   0  0  0  0  0  0  0  0  0  0  0  0
   37.4528   18.5367   36.3911 C   0  0  0  0  0  0  0  0  0  0  0  0
   34.2132   15.7912   35.8909 N   0  0  0  0  0  0  0  0  0  0  0  0
   34.9630   18.1731   35.6405 C   0  0  0  0  0  0  0  0  0  0  0  0
  1  4  1  0
  1 10  2  0
  1 18  1  0
  2  6  2  0
  3  5  2  0
  3  9  1  0
  3 16  1  0
  4 20  1  0
  6 19  1  0
  6 20  1  0
  7 13  1  0
  8  9  1  0
  9 18  1  0
 11 14  1  0
 11 20  1  0
 12 14  1  0
 12 15  2  0
 12 19  1  0
 13 14  1  0
 14 17  1  0
M  END
>  <ID>  (1) 
conformer_0

$$$$
