
     RDKit          3D

 15 14  0  0  0  0  0  0  0  0999 V2000
   38.8814   18.2554   37.3744 O   0  0  0  0  0  0  0  0  0  0  0  0
   36.1085   19.3261   34.8477 C   0  0  0  0  0  0  0  0  0  0  0  0
   31.5453   18.6033   34.8464 O   0  0  0  0  0  0  0  0  0  0  0  0
   36.1492   20.0446   33.6308 O   0  0  0  0  0  0  0  0  0  0  0  0
   32.5082   16.5972   35.7088 C   0  0  0  0  0  0  0  0  0  0  0  0
   37.9912   20.4184   35.9421 O   0  0  0  0  0  0  0  0  0  0  0  0
   34.9772   17.2399   36.3446 C   0  0  0  0  0  0  0  0  0  0  0  0
   33.1490   20.5060   35.9098 O   0  0  0  0  0  0  0  0  0  0  0  0
   33.9838   16.0009   36.1024 C   0  0  0  0  0  0  0  0  0  0  0  0
   37.6261   18.2084   36.7596 C   0  0  0  0  0  0  0  0  0  0  0  0
   33.2231   19.1797   36.4390 C   0  0  0  0  0  0  0  0  0  0  0  0
   37.5733   19.1687   35.4804 C   0  0  0  0  0  0  0  0  0  0  0  0
   38.3839   18.6206   34.4693 O   0  0  0  0  0  0  0  0  0  0  0  0
   35.2656   18.1698   35.1000 N   0  0  0  0  0  0  0  0  0  0  0  0
   32.6560   18.1016   35.4621 C   0  0  0  0  0  0  0  0  0  0  0  0
  1 10  1  0
  2  4  2  0
  2 12  1  0
  2 14  1  0
  3 15  1  0
  5  9  1  0
  5 15  1  0
  6 12  1  0
  7  9  1  0
  7 14  2  3
  8 11  1  0
 10 12  1  0
 11 15  1  0
 12 13  1  0
M  END
>  <ID>  (1) 
conformer_0

$$$$
