
     RDKit          3D

 23 23  0  0  0  0  0  0  0  0999 V2000
   39.4616   16.7495   34.0559 C   0  0  0  0  0  0  0  0  0  0  0  0
   33.9836   16.7165   37.4455 C   0  0  0  0  0  0  0  0  0  0  0  0
   39.5181   17.0414   36.4299 C   0  0  0  0  0  0  0  0  0  0  0  0
   32.2338   18.2592   36.3551 C   0  0  0  0  0  0  0  0  0  0  0  0
   38.3286   18.7348   33.2212 C   0  0  0  0  0  0  0  0  0  0  0  0
   33.2920   20.3910   36.0219 O   0  0  0  0  0  0  0  0  0  0  0  0
   35.4975   16.9963   37.2586 C   0  0  0  0  0  0  0  0  0  0  0  0
   37.6320   15.7651   37.3173 C   0  0  0  0  0  0  0  0  0  0  0  0
   38.0250   19.5376   36.1595 C   0  0  0  0  0  0  0  0  0  0  0  0
   38.6575   18.1311   35.8499 C   0  0  0  0  0  0  0  0  0  0  0  0
   39.2627   18.1939   34.3931 C   0  0  0  0  0  0  0  0  0  0  0  0
   33.5824   18.9997   36.4116 C   0  0  0  0  0  0  0  0  0  0  0  0
   38.2966   20.5758   35.5052 O   0  0  0  0  0  0  0  0  0  0  0  0
   37.1608   19.7265   37.1043 O   0  0  0  0  0  0  0  0  0  0  0  0
   38.2147   17.2066   37.0774 C   0  0  0  0  0  0  0  0  0  0  0  0
   38.5568   17.8030   38.4995 C   0  0  0  0  0  0  0  0  0  0  0  0
   33.2826   17.2636   36.1736 C   0  0  0  0  0  0  0  0  0  0  0  0
   39.4428   15.8823   35.5432 C   0  0  0  0  0  0  0  0  0  0  0  0
   31.5002   18.5659   35.2309 O   0  0  0  0  0  0  0  0  0  0  0  0
   38.4019   15.9703   34.5541 C   0  0  0  0  0  0  0  0  0  0  0  0
   33.0265   16.2060   35.3111 O   0  0  0  0  0  0  0  0  0  0  0  0
   36.2149   15.7582   36.7370 O   0  0  0  0  0  0  0  0  0  0  0  0
   32.9067   16.3393   38.4890 C   0  0  0  0  0  0  0  0  0  0  0  0
  1 11  1  0
  1 20  1  0
  2  7  1  0
  2 17  1  0
  2 23  1  0
  3 10  1  0
  3 15  1  0
  3 18  1  0
  4 12  1  0
  4 17  1  0
  4 19  1  0
  5 11  1  0
  6 12  1  0
  7 22  1  0
  8 15  1  0
  8 22  1  0
  9 10  1  0
  9 13  2  0
  9 14  1  0
 10 11  1  0
 15 16  1  0
 17 21  1  0
 18 20  1  0
M  END
>  <ID>  (1) 
conformer_0

$$$$
