
     RDKit          3D

 23 24  0  0  0  0  0  0  0  0999 V2000
   29.9450   17.7160   36.5144 O   0  0  0  0  0  0  0  0  0  0  0  0
   36.7847   19.8408   34.0642 O   0  0  0  0  0  0  0  0  0  0  0  0
   36.2168   17.6023   35.2622 O   0  0  0  0  0  0  0  0  0  0  0  0
   38.6898   15.8075   38.6700 N   0  0  0  0  0  0  0  0  0  0  0  0
   33.9198   20.3689   35.7691 O   0  0  0  0  0  0  0  0  0  0  0  0
   37.5281   19.6716   35.1422 C   0  0  0  0  0  0  0  0  0  0  0  0
   40.5359   16.8830   39.6548 N   0  0  0  0  0  0  0  0  0  0  0  0
   33.1759   19.4348   36.4284 C   0  0  0  0  0  0  0  0  0  0  0  0
   37.2478   17.4957   37.1877 C   0  0  0  0  0  0  0  0  0  0  0  0
   31.8579   18.0857   34.4355 O   0  0  0  0  0  0  0  0  0  0  0  0
   38.3193   15.4098   36.2652 C   0  0  0  0  0  0  0  0  0  0  0  0
   39.6881   17.6263   37.5363 C   0  0  0  0  0  0  0  0  0  0  0  0
   39.5689   15.9233   39.6067 C   0  0  0  0  0  0  0  0  0  0  0  0
   33.5577   17.9416   36.2166 C   0  0  0  0  0  0  0  0  0  0  0  0
   30.3493   15.6472   35.8347 O   0  0  0  0  0  0  0  0  0  0  0  0
   30.6708   16.8133   36.0543 C   0  0  0  0  0  0  0  0  0  0  0  0
   38.5498   16.7132   37.5822 C   0  0  0  0  0  0  0  0  0  0  0  0
   32.1551   17.2173   35.6474 C   0  0  0  0  0  0  0  0  0  0  0  0
   34.7632   17.7963   37.1388 O   0  0  0  0  0  0  0  0  0  0  0  0
   40.5679   17.7391   38.5370 C   0  0  0  0  0  0  0  0  0  0  0  0
   38.0695   20.6171   35.7464 O   0  0  0  0  0  0  0  0  0  0  0  0
   35.8613   16.9502   36.6469 C   0  0  0  0  0  0  0  0  0  0  0  0
   37.5377   18.2481   35.7752 C   0  0  0  0  0  0  0  0  0  0  0  0
  1 16  2  0
  2  6  2  0
  3 22  1  0
  3 23  1  0
  4 13  2  0
  4 17  1  0
  5  8  1  0
  6 21  1  0
  6 23  1  0
  7 13  1  0
  7 20  1  0
  8 14  1  0
  9 17  1  0
  9 22  1  0
  9 23  1  0
 10 18  1  0
 11 17  1  0
 12 17  1  0
 12 20  2  0
 14 18  1  0
 14 19  1  0
 15 16  1  0
 16 18  1  0
 19 22  1  0
M  END
>  <ID>  (1) 
conformer_0

$$$$
