
     RDKit          3D

 23 25  0  0  0  0  0  0  0  0999 V2000
   34.5612   17.4801   35.3845 N   0  0  0  0  0  0  0  0  0  0  0  0
   38.3994   17.8764   36.9933 C   0  0  0  0  0  0  0  0  0  0  0  0
   39.6772   16.0323   38.5434 N   0  0  0  0  0  0  0  0  0  0  0  0
   31.0817   17.7007   36.1671 C   0  0  0  0  0  0  0  0  0  0  0  0
   33.0822   15.9199   36.6510 C   0  0  0  0  0  0  0  0  0  0  0  0
   37.7951   18.9572   36.2065 C   0  0  0  0  0  0  0  0  0  0  0  0
   35.5356   15.2365   36.7901 C   0  0  0  0  0  0  0  0  0  0  0  0
   36.7259   18.5644   35.3009 C   0  0  0  0  0  0  0  0  0  0  0  0
   30.1705   17.9475   36.9829 O   0  0  0  0  0  0  0  0  0  0  0  0
   32.7220   19.3870   35.4327 N   0  0  0  0  0  0  0  0  0  0  0  0
   38.2854   20.1857   36.1133 O   0  0  0  0  0  0  0  0  0  0  0  0
   35.9845   17.3067   35.4732 C   0  0  0  0  0  0  0  0  0  0  0  0
   35.9385   19.6046   34.7452 O   0  0  0  0  0  0  0  0  0  0  0  0
   36.4230   16.4095   36.5840 C   0  0  0  0  0  0  0  0  0  0  0  0
   36.2506   13.9586   36.6693 O   0  0  0  0  0  0  0  0  0  0  0  0
   34.2294   15.0327   35.9390 C   0  0  0  0  0  0  0  0  0  0  0  0
   38.4419   15.7851   37.9946 C   0  0  0  0  0  0  0  0  0  0  0  0
   40.2390   17.2225   38.2834 C   0  0  0  0  0  0  0  0  0  0  0  0
   30.8824   17.1498   35.0491 O   0  0  0  0  0  0  0  0  0  0  0  0
   32.4214   18.3777   36.4492 C   0  0  0  0  0  0  0  0  0  0  0  0
   33.6449   17.3774   36.5403 C   0  0  0  0  0  0  0  0  0  0  0  0
   39.6260   18.1497   37.5430 N   0  0  0  0  0  0  0  0  0  0  0  0
   37.7549   16.6507   37.1743 C   0  0  0  0  0  0  0  0  0  0  0  0
  1 12  1  0
  1 21  1  0
  2  6  1  0
  2 22  1  0
  2 23  2  0
  3 17  2  0
  3 18  1  0
  4  9  2  0
  4 19  1  0
  4 20  1  0
  5 16  1  0
  5 21  1  0
  6  8  1  0
  6 11  1  0
  7 14  1  0
  7 15  1  0
  7 16  1  0
  8 12  1  0
  8 13  1  0
 10 20  1  0
 12 14  1  0
 14 23  1  0
 17 23  1  0
 18 22  2  0
 20 21  1  0
M  END
>  <ID>  (1) 
conformer_0

$$$$
