
     RDKit          3D

 23 24  0  0  0  0  0  0  0  0999 V2000
   38.6098   17.8321   37.8802 O   0  0  0  0  0  0  0  0  0  0  0  0
   32.3363   17.6203   36.4838 C   0  0  0  0  0  0  0  0  0  0  0  0
   37.8943   20.5161   35.4655 O   0  0  0  0  0  0  0  0  0  0  0  0
   38.3488   19.2237   35.4852 C   0  0  0  0  0  0  0  0  0  0  0  0
   33.5443   18.1367   35.7572 C   0  0  0  0  0  0  0  0  0  0  0  0
   33.9229   16.3374   37.9925 C   0  0  0  0  0  0  0  0  0  0  0  0
   39.2908   18.8432   34.4119 C   0  0  0  0  0  0  0  0  0  0  0  0
   36.4944   16.8100   37.7953 N   0  0  0  0  0  0  0  0  0  0  0  0
   35.0986   16.9775   37.4334 C   0  0  0  0  0  0  0  0  0  0  0  0
   38.9589   19.0779   33.1802 O   0  0  0  0  0  0  0  0  0  0  0  0
   35.4698   19.4156   34.6666 O   0  0  0  0  0  0  0  0  0  0  0  0
   31.4116   16.1259   38.3234 C   0  0  0  0  0  0  0  0  0  0  0  0
   32.5696   16.7793   37.6934 C   0  0  0  0  0  0  0  0  0  0  0  0
   29.9832   17.5741   36.2360 O   0  0  0  0  0  0  0  0  0  0  0  0
   31.0719   17.9804   35.7793 C   0  0  0  0  0  0  0  0  0  0  0  0
   34.0615   15.0331   38.3307 O   0  0  0  0  0  0  0  0  0  0  0  0
   35.9539   18.7106   35.8655 C   0  0  0  0  0  0  0  0  0  0  0  0
   34.9076   17.6144   36.1213 C   0  0  0  0  0  0  0  0  0  0  0  0
   40.1891   17.9992   34.7923 O   0  0  0  0  0  0  0  0  0  0  0  0
   37.5713   17.4904   37.1685 C   0  0  0  0  0  0  0  0  0  0  0  0
   37.2613   17.0256   34.8368 O   0  0  0  0  0  0  0  0  0  0  0  0
   37.3598   18.0773   35.7944 C   0  0  0  0  0  0  0  0  0  0  0  0
   31.2532   18.7125   34.7593 O   0  0  0  0  0  0  0  0  0  0  0  0
  1 20  2  0
  2  5  1  0
  2 13  2  0
  2 15  1  0
  3  4  1  0
  4  7  1  0
  4 22  1  0
  5 18  1  0
  6  9  1  0
  6 13  1  0
  6 16  1  0
  7 10  2  0
  7 19  1  0
  8  9  1  0
  8 20  1  0
  9 18  1  0
 11 17  1  0
 12 13  1  0
 14 15  2  0
 15 23  1  0
 17 18  1  0
 17 22  1  0
 20 22  1  0
 21 22  1  0
M  END
>  <ID>  (1) 
conformer_0

$$$$
