
     RDKit          3D

 15 14  0  0  0  0  0  0  0  0999 V2000
   34.5023   17.4380   36.2132 C   0  0  0  0  0  0  0  0  0  0  0  0
   37.0960   17.4115   35.5783 C   0  0  0  0  0  0  0  0  0  0  0  0
   32.4184   18.7142   37.0549 C   0  0  0  0  0  0  0  0  0  0  0  0
   34.0192   18.8651   36.6601 C   0  0  0  0  0  0  0  0  0  0  0  0
   37.5638   20.3809   34.9477 O   0  0  0  0  0  0  0  0  0  0  0  0
   38.2554   19.6306   35.7374 C   0  0  0  0  0  0  0  0  0  0  0  0
   31.5057   16.6643   36.1837 O   0  0  0  0  0  0  0  0  0  0  0  0
   37.4941   18.5754   36.4985 C   0  0  0  0  0  0  0  0  0  0  0  0
   39.5112   19.6319   35.7877 O   0  0  0  0  0  0  0  0  0  0  0  0
   34.2062   19.8214   35.5791 O   0  0  0  0  0  0  0  0  0  0  0  0
   38.1141   18.0469   37.8096 C   0  0  0  0  0  0  0  0  0  0  0  0
   31.5247   18.4699   34.8641 O   0  0  0  0  0  0  0  0  0  0  0  0
   35.6517   17.3138   35.2563 C   0  0  0  0  0  0  0  0  0  0  0  0
   31.1690   18.8495   38.0972 C   0  0  0  0  0  0  0  0  0  0  0  0
   31.7965   17.8402   35.9021 C   0  0  0  0  0  0  0  0  0  0  0  0
  1  4  1  0
  1 13  1  0
  2  8  1  0
  2 13  1  0
  3  4  1  0
  3 14  1  0
  3 15  1  0
  4 10  1  0
  5  6  2  0
  6  8  1  0
  6  9  1  0
  7 15  2  0
  8 11  1  0
 12 15  1  0
M  END
>  <ID>  (1) 
conformer_0

$$$$
