
     RDKit          3D

 14 14  0  0  0  0  0  0  0  0999 V2000
   38.2852   19.2105   36.0004 C   0  0  0  0  0  0  0  0  0  0  0  0
   33.1869   17.7337   36.6413 C   0  0  0  0  0  0  0  0  0  0  0  0
   34.6193   18.2528   36.8874 C   0  0  0  0  0  0  0  0  0  0  0  0
   32.7223   19.7129   35.6429 O   0  0  0  0  0  0  0  0  0  0  0  0
   36.9716   18.5410   36.2535 C   0  0  0  0  0  0  0  0  0  0  0  0
   32.3327   18.4679   35.6306 C   0  0  0  0  0  0  0  0  0  0  0  0
   31.2470   18.0860   35.1151 O   0  0  0  0  0  0  0  0  0  0  0  0
   39.4265   18.6489   36.2442 O   0  0  0  0  0  0  0  0  0  0  0  0
   35.5198   17.3406   37.7034 O   0  0  0  0  0  0  0  0  0  0  0  0
   35.5313   18.4857   35.6979 C   0  0  0  0  0  0  0  0  0  0  0  0
   37.9934   17.1570   38.0601 O   0  0  0  0  0  0  0  0  0  0  0  0
   36.9021   17.6785   37.4784 C   0  0  0  0  0  0  0  0  0  0  0  0
   38.2405   20.4481   35.6776 O   0  0  0  0  0  0  0  0  0  0  0  0
   35.3130   19.3607   34.6363 O   0  0  0  0  0  0  0  0  0  0  0  0
  1  5  1  0
  1  8  2  0
  1 13  1  0
  2  3  1  0
  2  6  1  0
  3  9  1  0
  3 10  1  0
  4  6  2  0
  5 10  1  0
  5 12  1  0
  6  7  1  0
  9 12  1  0
 10 14  1  0
 11 12  2  0
M  END
>  <ID>  (1) 
conformer_0

$$$$
