
     RDKit          3D

 11 10  0  0  0  0  0  0  0  0999 V2000
   34.1580   18.3391   35.7481 C   0  0  0  0  0  0  0  0  0  0  0  0
   31.7455   18.2935   36.2416 C   0  0  0  0  0  0  0  0  0  0  0  0
   35.7421   19.9282   34.3218 O   0  0  0  0  0  0  0  0  0  0  0  0
   38.9362   18.4202   35.9507 O   0  0  0  0  0  0  0  0  0  0  0  0
   33.0163   19.1443   36.4723 C   0  0  0  0  0  0  0  0  0  0  0  0
   36.8502   18.4657   37.0363 C   0  0  0  0  0  0  0  0  0  0  0  0
   37.7542   19.1955   35.8911 C   0  0  0  0  0  0  0  0  0  0  0  0
   36.9116   19.0840   34.5447 C   0  0  0  0  0  0  0  0  0  0  0  0
   37.9886   20.5134   36.1063 O   0  0  0  0  0  0  0  0  0  0  0  0
   35.3691   18.4618   36.6747 C   0  0  0  0  0  0  0  0  0  0  0  0
   31.5720   18.4874   34.7589 N   0  0  0  0  0  0  0  0  0  0  0  0
  1  5  1  0
  1 10  1  0
  2  5  1  0
  2 11  1  0
  3  8  1  0
  4  7  1  0
  6  7  1  0
  6 10  1  0
  7  8  1  0
  7  9  1  0
M  END
>  <ID>  (1) 
conformer_0

$$$$
