
     RDKit          3D

 16 16  0  0  0  0  0  0  0  0999 V2000
   33.8848   17.8293   35.5985 O   0  0  0  0  0  0  0  0  0  0  0  0
   38.6180   19.3810   35.9232 C   0  0  0  0  0  0  0  0  0  0  0  0
   37.5671   18.3599   35.7219 C   0  0  0  0  0  0  0  0  0  0  0  0
   36.1282   16.4272   36.0025 C   0  0  0  0  0  0  0  0  0  0  0  0
   31.2595   18.5113   34.8442 O   0  0  0  0  0  0  0  0  0  0  0  0
   33.2688   19.1229   35.9653 C   0  0  0  0  0  0  0  0  0  0  0  0
   37.5108   17.0547   36.5121 C   0  0  0  0  0  0  0  0  0  0  0  0
   30.2539   18.1397   37.7881 O   0  0  0  0  0  0  0  0  0  0  0  0
   35.6056   19.3850   34.2874 O   0  0  0  0  0  0  0  0  0  0  0  0
   38.2757   20.6271   35.8585 O   0  0  0  0  0  0  0  0  0  0  0  0
   31.7585   18.8336   36.0929 C   0  0  0  0  0  0  0  0  0  0  0  0
   35.2436   17.6457   35.8848 C   0  0  0  0  0  0  0  0  0  0  0  0
   36.1111   18.8429   35.5345 C   0  0  0  0  0  0  0  0  0  0  0  0
   39.8468   18.9959   36.0685 O   0  0  0  0  0  0  0  0  0  0  0  0
   32.0872   16.5507   37.1620 C   0  0  0  0  0  0  0  0  0  0  0  0
   31.5201   17.9100   37.2617 C   0  0  0  0  0  0  0  0  0  0  0  0
  1  6  1  0
  1 12  1  0
  2  3  1  0
  2 10  2  0
  2 14  1  0
  3  7  1  0
  3 13  1  0
  4  7  1  0
  4 12  1  0
  5 11  1  0
  6 11  1  0
  8 16  1  0
  9 13  1  0
 11 16  1  0
 12 13  1  0
 15 16  1  0
M  END
>  <ID>  (1) 
conformer_0

$$$$
