
     RDKit          3D

 23 24  0  0  0  0  0  0  0  0999 V2000
   38.8155   18.1448   36.3500 C   0  0  0  0  0  0  0  0  0  0  0  0
   36.1050   15.4150   37.5962 O   0  0  0  0  0  0  0  0  0  0  0  0
   37.9324   16.7948   38.2844 O   0  0  0  0  0  0  0  0  0  0  0  0
   38.5062   20.5628   36.0320 O   0  0  0  0  0  0  0  0  0  0  0  0
   31.9396   17.6500   37.1323 C   0  0  0  0  0  0  0  0  0  0  0  0
   33.1126   18.5761   36.1206 C   0  0  0  0  0  0  0  0  0  0  0  0
   35.5133   16.6969   37.3746 C   0  0  0  0  0  0  0  0  0  0  0  0
   31.5652   16.3962   39.1963 O   0  0  0  0  0  0  0  0  0  0  0  0
   35.9064   18.4123   35.5799 O   0  0  0  0  0  0  0  0  0  0  0  0
   34.6015   19.1217   35.9506 C   0  0  0  0  0  0  0  0  0  0  0  0
   36.9365   19.6224   33.5563 C   0  0  0  0  0  0  0  0  0  0  0  0
   37.8629   17.0763   36.8391 C   0  0  0  0  0  0  0  0  0  0  0  0
   35.6885   19.5972   32.9719 O   0  0  0  0  0  0  0  0  0  0  0  0
   31.1862   18.7444   37.5970 O   0  0  0  0  0  0  0  0  0  0  0  0
   36.4377   17.5175   36.6027 C   0  0  0  0  0  0  0  0  0  0  0  0
   36.9824   19.0855   34.9123 C   0  0  0  0  0  0  0  0  0  0  0  0
   40.0589   18.3727   36.9415 O   0  0  0  0  0  0  0  0  0  0  0  0
   33.2244   17.0631   36.2607 C   0  0  0  0  0  0  0  0  0  0  0  0
   37.2115   15.5875   38.5907 C   0  0  0  0  0  0  0  0  0  0  0  0
   32.1532   18.8820   35.0465 O   0  0  0  0  0  0  0  0  0  0  0  0
   38.1721   19.3006   35.7273 C   0  0  0  0  0  0  0  0  0  0  0  0
   34.1067   16.6503   37.3830 O   0  0  0  0  0  0  0  0  0  0  0  0
   31.3181   16.4146   37.7642 C   0  0  0  0  0  0  0  0  0  0  0  0
  1 12  1  0
  1 17  1  0
  1 21  1  0
  2  7  1  0
  2 19  1  0
  3 12  1  0
  3 19  1  0
  4 21  1  0
  5 14  1  0
  5 18  1  0
  5 23  1  0
  6 10  1  0
  6 18  1  0
  6 20  1  0
  7 15  1  0
  7 22  1  0
  8 23  1  0
  9 15  1  0
  9 16  1  0
 11 13  1  0
 11 16  1  0
 12 15  1  0
 16 21  1  0
 18 22  1  0
M  END
>  <ID>  (1) 
conformer_0

$$$$
