
     RDKit          3D

 17 17  0  0  0  0  0  0  0  0999 V2000
   30.7335   18.2774   36.2311 O   0  0  0  0  0  0  0  0  0  0  0  0
   38.2576   16.9833   36.9769 C   0  0  0  0  0  0  0  0  0  0  0  0
   31.8562   18.2756   35.5982 C   0  0  0  0  0  0  0  0  0  0  0  0
   39.3614   19.0446   36.2886 N   0  0  0  0  0  0  0  0  0  0  0  0
   37.9899   20.7389   35.5481 O   0  0  0  0  0  0  0  0  0  0  0  0
   33.2790   18.3146   36.2377 C   0  0  0  0  0  0  0  0  0  0  0  0
   37.0009   17.5531   36.5044 C   0  0  0  0  0  0  0  0  0  0  0  0
   35.6501   17.2613   36.3500 C   0  0  0  0  0  0  0  0  0  0  0  0
   34.1648   16.9076   38.2120 O   0  0  0  0  0  0  0  0  0  0  0  0
   34.6621   17.9887   35.5398 C   0  0  0  0  0  0  0  0  0  0  0  0
   32.0080   16.6291   37.6939 O   0  0  0  0  0  0  0  0  0  0  0  0
   31.7745   18.2111   34.3285 O   0  0  0  0  0  0  0  0  0  0  0  0
   33.5192   19.7665   36.5843 O   0  0  0  0  0  0  0  0  0  0  0  0
   37.0596   18.7064   36.0199 N   0  0  0  0  0  0  0  0  0  0  0  0
   39.3993   17.7641   36.8038 C   0  0  0  0  0  0  0  0  0  0  0  0
   33.1706   17.3885   37.4632 C   0  0  0  0  0  0  0  0  0  0  0  0
   38.1315   19.4986   35.9233 C   0  0  0  0  0  0  0  0  0  0  0  0
  1  3  2  0
  2  7  1  0
  2 15  1  0
  3  6  1  0
  3 12  1  0
  4 15  2  0
  4 17  1  0
  5 17  2  0
  6 10  1  0
  6 13  1  0
  6 16  1  0
  7  8  1  0
  7 14  2  0
  8 10  1  0
  9 16  2  0
 11 16  1  0
 14 17  1  0
M  END
>  <ID>  (1) 
conformer_0

$$$$
