
     RDKit          3D

 28 30  0  0  0  0  0  0  0  0999 V2000
   37.3159   17.7433   35.5484 C   0  0  0  0  0  0  0  0  0  0  0  0
   32.7725   19.2365   36.0310 C   0  0  0  0  0  0  0  0  0  0  0  0
   37.1306   20.0040   34.1337 O   0  0  0  0  0  0  0  0  0  0  0  0
   30.7969   18.4864   34.9399 O   0  0  0  0  0  0  0  0  0  0  0  0
   39.5375   18.9342   36.4764 O   0  0  0  0  0  0  0  0  0  0  0  0
   39.4669   19.1242   34.0873 O   0  0  0  0  0  0  0  0  0  0  0  0
   31.1079   16.3113   36.8012 C   0  0  0  0  0  0  0  0  0  0  0  0
   33.3597   16.6766   38.2049 C   0  0  0  0  0  0  0  0  0  0  0  0
   35.9619   17.4194   37.6041 C   0  0  0  0  0  0  0  0  0  0  0  0
   36.0526   14.0447   39.1625 C   0  0  0  0  0  0  0  0  0  0  0  0
   31.4719   15.2166   37.7070 C   0  0  0  0  0  0  0  0  0  0  0  0
   35.0745   18.7305   35.8661 O   0  0  0  0  0  0  0  0  0  0  0  0
   36.0522   17.8328   36.2451 C   0  0  0  0  0  0  0  0  0  0  0  0
   32.2138   16.9107   36.0535 C   0  0  0  0  0  0  0  0  0  0  0  0
   29.8966   16.7228   36.8897 O   0  0  0  0  0  0  0  0  0  0  0  0
   35.6614   15.2934   38.8503 C   0  0  0  0  0  0  0  0  0  0  0  0
   33.5376   17.0916   36.7847 C   0  0  0  0  0  0  0  0  0  0  0  0
   37.4761   15.5142   37.3131 C   0  0  0  0  0  0  0  0  0  0  0  0
   32.0326   18.1423   35.2897 C   0  0  0  0  0  0  0  0  0  0  0  0
   32.5713   15.1224   39.9579 C   0  0  0  0  0  0  0  0  0  0  0  0
   38.3581   19.3757   35.2660 P   0  0  0  0  0  5  0  0  0  0  0  0
   36.3340   16.0718   37.9111 C   0  0  0  0  0  0  0  0  0  0  0  0
   30.4688   14.3270   38.3070 C   0  0  0  0  0  0  0  0  0  0  0  0
   33.9236   18.5153   36.6881 C   0  0  0  0  0  0  0  0  0  0  0  0
   37.1860   13.5080   38.5683 C   0  0  0  0  0  0  0  0  0  0  0  0
   37.8917   14.2876   37.6294 C   0  0  0  0  0  0  0  0  0  0  0  0
   38.2447   20.7900   35.9987 O   0  0  0  0  0  0  0  0  0  0  0  0
   32.4575   15.6614   38.6130 N   0  0  0  0  0  0  0  0  0  0  0  0
  1 13  1  0
  1 21  1  0
  2 19  1  0
  2 24  1  0
  3 21  1  0
  4 19  1  0
  5 21  1  0
  6 21  1  0
  7 11  1  0
  7 14  1  0
  7 15  2  0
  8 17  1  0
  8 28  1  0
  9 13  1  0
  9 22  1  0
 10 16  2  0
 10 25  1  0
 11 23  1  0
 11 28  1  0
 12 13  1  0
 12 24  1  0
 14 17  1  0
 14 19  1  0
 16 22  1  0
 17 24  1  0
 18 22  1  0
 18 26  2  0
 20 28  1  0
 21 27  1  0
 25 26  1  0
M  END
>  <ID>  (1) 
conformer_0

$$$$
