
     RDKit          3D

 28 29  0  0  0  0  0  0  0  0999 V2000
   90.2616   44.2306   73.0400 N   0  0  0  0  0  0  0  0  0  0  0  0
   98.5362   45.5558   75.7703 O   0  0  0  0  0  0  0  0  0  0  0  0
   94.4041   50.8559   72.0950 O   0  0  0  0  0  0  0  0  0  0  0  0
   92.4361   46.8674   71.8974 C   0  0  0  0  0  0  0  0  0  0  0  0
   92.3860   49.7737   70.4257 C   0  0  0  0  0  0  0  0  0  0  0  0
   95.8673   47.0546   75.0554 P   0  0  0  0  0  4  0  0  0  0  0  0
   98.9933   46.1980   74.6768 C   0  0  0  0  0  0  0  0  0  0  0  0
   91.9785   45.8919   72.7142 C   0  0  0  0  0  0  0  0  0  0  0  0
   96.1982   48.2379   74.1536 C   0  0  0  0  0  0  0  0  0  0  0  0
   95.5207   48.6630   72.0310 O   0  0  0  0  0  0  0  0  0  0  0  0
   94.4452   48.6692   71.1216 C   0  0  0  0  0  0  0  0  0  0  0  0
   97.4579   48.0176   73.3142 C   0  0  0  0  0  0  0  0  0  0  0  0
   93.5669   49.8828   71.4416 C   0  0  0  0  0  0  0  0  0  0  0  0
   91.7794   47.3186   70.7461 C   0  0  0  0  0  0  0  0  0  0  0  0
   92.3213   48.3545   69.7065 C   0  0  0  0  0  0  0  0  0  0  0  0
  100.3145   45.8138   74.2916 C   0  0  0  0  0  0  0  0  0  0  0  0
   94.8273   50.5143   73.4170 C   0  0  0  0  0  0  0  0  0  0  0  0
   90.0690   45.7133   71.2374 N   0  0  0  0  0  0  0  0  0  0  0  0
   95.9337   47.2697   76.3957 O   0  0  0  0  0  0  0  0  0  0  0  0
   96.0766   52.4716   74.0756 O   0  0  0  0  0  0  0  0  0  0  0  0
   96.1630   50.6679   75.3932 O   0  0  0  0  0  0  0  0  0  0  0  0
   98.2486   46.9796   73.8718 O   0  0  0  0  0  0  0  0  0  0  0  0
   90.5240   46.7348   70.4489 C   0  0  0  0  0  0  0  0  0  0  0  0
   90.7476   45.2849   72.3282 C   0  0  0  0  0  0  0  0  0  0  0  0
   95.6580   45.8477   74.5600 O   0  0  0  0  0  1  0  0  0  0  0  0
   95.1423   49.0332   73.3496 C   0  0  0  0  0  0  0  0  0  0  0  0
   89.7729   47.1054   69.4126 N   0  0  0  0  0  0  0  0  0  0  0  0
   95.7199   51.2872   74.3480 C   0  0  0  0  0  0  0  0  0  0  0  0
  1 24  2  0
  2  7  2  0
  3 13  1  0
  3 17  1  0
  4  8  2  0
  4 14  1  0
  5 13  1  0
  5 15  1  0
  6  9  1  0
  6 19  1  0
  6 25  2  0
  7 16  1  0
  7 22  1  0
  8 24  1  0
  9 12  1  0
  9 26  1  0
 10 11  1  0
 10 26  1  0
 11 13  1  0
 12 22  1  0
 14 15  1  0
 14 23  1  0
 17 26  1  0
 17 28  1  0
 18 23  1  0
 18 24  1  0
 20 28  2  0
 21 28  1  0
 23 27  2  0
M  END
>  <ID>  (1) 
conformer_0

$$$$
