
     RDKit          3D

 31 32  0  0  0  0  0  0  0  0999 V2000
   92.0372   46.1049   71.7811 C   0  0  0  0  0  0  0  0  0  0  0  0
   98.7082   44.6337   76.0330 O   0  0  0  0  0  1  0  0  0  0  0  0
   90.6196   48.4336   68.8212 N   0  0  0  0  0  0  0  0  0  0  0  0
   93.4202   46.3051   71.6671 N   0  0  0  0  0  0  0  0  0  0  0  0
   95.3835   50.8253   72.5067 C   0  0  0  0  0  0  0  0  0  0  0  0
  100.3439   46.3494   73.9839 O   0  0  0  0  0  0  0  0  0  0  0  0
   89.8901   43.8642   73.6359 N   0  0  0  0  0  0  0  0  0  0  0  0
   94.1262   52.3737   71.2916 O   0  0  0  0  0  0  0  0  0  0  0  0
   91.5672   45.2369   72.7145 N   0  0  0  0  0  0  0  0  0  0  0  0
   93.7638   50.3018   70.7753 O   0  0  0  0  0  0  0  0  0  0  0  0
   91.1035   46.7331   70.8960 C   0  0  0  0  0  0  0  0  0  0  0  0
   94.1805   51.1107   71.7089 C   0  0  0  0  0  0  0  0  0  0  0  0
   95.4510   47.1165   73.6876 C   0  0  0  0  0  0  0  0  0  0  0  0
   89.3796   45.4260   71.8296 N   0  0  0  0  0  0  0  0  0  0  0  0
   99.1797   46.2354   73.2378 C   0  0  0  0  0  0  0  0  0  0  0  0
   98.1721   45.9683   76.0814 P   0  0  0  0  0  0  0  0  0  0  0  0
   95.7760   49.7259   74.6926 O   0  0  0  0  0  0  0  0  0  0  0  0
   93.8868   47.3561   70.9822 C   0  0  0  0  0  0  0  0  0  0  0  0
   93.0973   47.7606   69.8612 N   0  0  0  0  0  0  0  0  0  0  0  0
   98.8370   47.1590   76.4736 O   0  0  0  0  0  1  0  0  0  0  0  0
   89.7770   46.3240   70.9575 N   0  0  0  0  0  0  0  0  0  0  0  0
   94.9636   48.0818   71.4537 N   0  0  0  0  0  0  0  0  0  0  0  0
   95.6229   48.2330   72.7256 C   0  0  0  0  0  0  0  0  0  0  0  0
   95.6817   49.6114   73.3071 C   0  0  0  0  0  0  0  0  0  0  0  0
   90.2616   44.8948   72.7037 C   0  0  0  0  0  0  0  0  0  0  0  0
   97.9455   46.9945   73.4572 C   0  0  0  0  0  0  0  0  0  0  0  0
   91.6541   47.6695   69.8782 C   0  0  0  0  0  0  0  0  0  0  0  0
   96.5696   51.3932   72.0446 O   0  0  0  0  0  0  0  0  0  0  0  0
   96.7196   46.4402   74.0597 C   0  0  0  0  0  0  0  0  0  0  0  0
   96.7068   46.0997   75.4550 O   0  0  0  0  0  0  0  0  0  0  0  0
   94.3351   46.7490   74.3133 O   0  0  0  0  0  0  0  0  0  0  0  0
  1  4  1  0
  1  9  2  0
  1 11  1  0
  2 16  1  0
  3 27  2  0
  4 18  2  0
  5 12  1  0
  5 24  1  0
  5 28  1  0
  6 15  1  0
  7 25  2  0
  8 12  2  0
  9 25  1  0
 10 12  1  0
 11 21  2  0
 11 27  1  0
 13 23  1  0
 13 29  1  0
 13 31  1  0
 14 21  1  0
 14 25  1  0
 15 26  1  0
 16 20  1  0
 16 30  1  0
 17 24  1  0
 18 19  1  0
 18 22  1  0
 19 27  1  0
 22 23  1  0
 23 24  1  0
 26 29  1  0
 29 30  1  0
M  END
>  <ID>  (1) 
conformer_0

$$$$
