
     RDKit          3D

 31 34  0  0  0  0  0  0  0  0999 V2000
   89.9140   45.8235   71.3790 N   0  0  0  0  0  0  0  0  0  0  0  0
   95.1852   50.6204   72.3154 C   0  0  0  0  0  0  0  0  0  0  0  0
   93.1044   47.5800   71.1493 C   0  0  0  0  0  0  0  0  0  0  0  0
   99.0096   45.2449   75.7486 C   0  0  0  0  0  0  0  0  0  0  0  0
   97.5723   45.0345   75.2923 C   0  0  0  0  0  0  0  0  0  0  0  0
   95.6093   48.0778   73.9609 C   0  0  0  0  0  0  0  0  0  0  0  0
   96.3024   49.2362   74.7994 C   0  0  0  0  0  0  0  0  0  0  0  0
   96.9789   52.5191   73.3776 C   0  0  0  0  0  0  0  0  0  0  0  0
   99.8792   46.1995   73.4135 C   0  0  0  0  0  0  0  0  0  0  0  0
   95.0412   51.6201   71.3096 O   0  0  0  0  0  0  0  0  0  0  0  0
   96.2797   46.8405   76.3554 O   0  0  0  0  0  1  0  0  0  0  0  0
   96.2144   51.2082   73.2879 C   0  0  0  0  0  0  0  0  0  0  0  0
   99.7130   47.5622   73.5222 O   0  0  0  0  0  0  0  0  0  0  0  0
   89.4347   44.9461   72.2410 N   0  0  0  0  0  0  0  0  0  0  0  0
   94.8425   45.8651   72.8400 C   0  0  0  0  0  0  0  0  0  0  0  0
   92.1760   45.7152   72.9265 C   0  0  0  0  0  0  0  0  0  0  0  0
   99.9306   45.3213   74.5890 C   0  0  0  0  0  0  0  0  0  0  0  0
   94.0956   49.5945   72.0833 C   0  0  0  0  0  0  0  0  0  0  0  0
   90.1875   44.4449   73.3846 C   0  0  0  0  0  0  0  0  0  0  0  0
   91.0882   45.4990   73.8312 C   0  0  0  0  0  0  0  0  0  0  0  0
   92.2772   48.6396   70.5747 C   0  0  0  0  0  0  0  0  0  0  0  0
   96.0383   50.7450   74.7275 C   0  0  0  0  0  0  0  0  0  0  0  0
   94.4145   47.3620   73.2549 C   0  0  0  0  0  0  0  0  0  0  0  0
   91.0138   47.8475   70.2466 C   0  0  0  0  0  0  0  0  0  0  0  0
   96.7663   47.0498   73.9282 O   0  0  0  0  0  0  0  0  0  0  0  0
   94.1860   48.1409   71.9862 C   0  0  0  0  0  0  0  0  0  0  0  0
   90.9250   46.7357   71.1314 C   0  0  0  0  0  0  0  0  0  0  0  0
   93.1528   49.8969   70.9005 C   0  0  0  0  0  0  0  0  0  0  0  0
  100.5854   44.0034   74.3695 C   0  0  0  0  0  0  0  0  0  0  0  0
   96.8791   46.3849   75.2254 P   0  0  0  0  0  4  0  0  0  0  0  0
   92.1780   46.6231   71.7786 C   0  0  0  0  0  0  0  0  0  0  0  0
  1 14  2  0
  1 27  1  0
  2 10  1  0
  2 12  1  0
  2 18  1  0
  3 21  1  0
  3 26  1  0
  3 31  1  0
  4  5  1  0
  4 17  1  0
  5 30  1  0
  6  7  1  0
  6 23  1  0
  6 25  1  0
  7 22  1  0
  8 12  1  0
  9 13  1  0
  9 17  1  0
 11 30  2  0
 12 22  1  0
 14 19  1  0
 15 23  1  0
 16 20  1  0
 16 31  1  0
 17 29  1  0
 18 26  1  0
 18 28  1  0
 19 20  1  0
 21 24  1  0
 21 28  1  0
 23 26  1  0
 24 27  1  0
 25 30  1  0
 27 31  2  0
M  END
>  <ID>  (1) 
conformer_0

$$$$
