
     RDKit          3D

 21 22  0  0  0  0  0  0  0  0999 V2000
   97.8265   44.7092   75.9347 O   0  0  0  0  0  1  0  0  0  0  0  0
   92.7178   46.4719   72.9083 C   0  0  0  0  0  0  0  0  0  0  0  0
   98.1047   46.0211   73.7896 O   0  0  0  0  0  0  0  0  0  0  0  0
   94.6821   51.5198   71.8887 C   0  0  0  0  0  0  0  0  0  0  0  0
   90.6561   46.1285   71.6586 C   0  0  0  0  0  0  0  0  0  0  0  0
   95.2435   51.2633   73.2403 C   0  0  0  0  0  0  0  0  0  0  0  0
   96.4123   51.8404   73.9287 C   0  0  0  0  0  0  0  0  0  0  0  0
   94.4865   48.8198   72.8390 C   0  0  0  0  0  0  0  0  0  0  0  0
   91.4493   45.5815   72.8285 C   0  0  0  0  0  0  0  0  0  0  0  0
   98.6744   47.1372   76.0415 O   0  0  0  0  0  0  0  0  0  0  0  0
   94.8002   47.6209   73.7007 C   0  0  0  0  0  0  0  0  0  0  0  0
   89.5784   45.5890   71.2613 O   0  0  0  0  0  0  0  0  0  0  0  0
   95.9748   47.7787   74.5793 C   0  0  0  0  0  0  0  0  0  0  0  0
   93.9349   46.5566   73.6428 O   0  0  0  0  0  0  0  0  0  0  0  0
   92.9047   47.1259   71.5444 C   0  0  0  0  0  0  0  0  0  0  0  0
   94.1538   48.0401   71.4803 C   0  0  0  0  0  0  0  0  0  0  0  0
   96.2327   46.6215   75.4436 O   0  0  0  0  0  0  0  0  0  0  0  0
   94.6686   50.0450   73.8299 C   0  0  0  0  0  0  0  0  0  0  0  0
   90.8577   44.2342   73.0789 N   0  0  0  0  0  0  0  0  0  0  0  0
   91.5728   46.9852   70.8553 C   0  0  0  0  0  0  0  0  0  0  0  0
   97.8218   46.0661   75.3214 P   0  0  0  0  0  4  0  0  0  0  0  0
  1 21  2  0
  2  9  1  0
  2 14  1  0
  2 15  1  0
  3 21  1  0
  4  6  1  0
  5  9  1  0
  5 12  2  0
  5 20  1  0
  6  7  1  0
  6 18  1  0
  8 11  1  0
  8 16  1  0
  8 18  1  0
  9 19  1  0
 10 21  1  0
 11 13  1  0
 11 14  1  0
 13 17  1  0
 15 16  1  0
 15 20  1  0
 17 21  1  0
M  END
>  <ID>  (1) 
conformer_0

$$$$
