
     RDKit          3D

 29 32  0  0  0  0  0  0  0  0999 V2000
   99.8707   46.2643   76.0393 O   0  0  0  0  0  1  0  0  0  0  0  0
   94.4630   46.4027   73.9945 O   0  0  0  0  0  0  0  0  0  0  0  0
   98.0715   47.7284   73.3898 C   0  0  0  0  0  0  0  0  0  0  0  0
   94.2866   48.1644   71.5144 C   0  0  0  0  0  0  0  0  0  0  0  0
   88.9212   46.5209   71.2286 O   0  0  0  0  0  0  0  0  0  0  0  0
   91.1062   46.6802   70.2616 C   0  0  0  0  0  0  0  0  0  0  0  0
   95.7244   47.0566   73.6432 C   0  0  0  0  0  0  0  0  0  0  0  0
   90.0388   45.7430   70.8788 C   0  0  0  0  0  0  0  0  0  0  0  0
   90.5365   44.9365   72.0567 C   0  0  0  0  0  0  0  0  0  0  0  0
   93.4925   50.0453   70.4969 O   0  0  0  0  0  0  0  0  0  0  0  0
   96.7115   47.9093   72.8179 C   0  0  0  0  0  0  0  0  0  0  0  0
   94.2219   46.6299   71.4749 C   0  0  0  0  0  0  0  0  0  0  0  0
   95.6545   51.2925   74.4743 C   0  0  0  0  0  0  0  0  0  0  0  0
   91.9310   47.4155   71.3609 C   0  0  0  0  0  0  0  0  0  0  0  0
   97.9242   46.7062   74.4260 O   0  0  0  0  0  0  0  0  0  0  0  0
   94.6652   50.5353   71.3243 C   0  0  0  0  0  0  0  0  0  0  0  0
   95.5949   51.5156   71.9408 N   0  0  0  0  0  0  0  0  0  0  0  0
   96.6066   46.5858   74.8518 C   0  0  0  0  0  0  0  0  0  0  0  0
   96.1115   46.9681   76.0647 O   0  0  0  0  0  0  0  0  0  0  0  0
   92.8892   48.6099   70.9636 C   0  0  0  0  0  0  0  0  0  0  0  0
   89.6052   44.5171   72.9647 O   0  0  0  0  0  0  0  0  0  0  0  0
   99.8111   45.2358   73.6452 O   0  0  0  0  0  0  0  0  0  0  0  0
   96.4073   50.9572   73.1109 C   0  0  0  0  0  0  0  0  0  0  0  0
   94.8653   49.3713   72.2259 C   0  0  0  0  0  0  0  0  0  0  0  0
   96.2573   49.4383   72.8717 C   0  0  0  0  0  0  0  0  0  0  0  0
   98.3380   44.3273   75.4702 O   0  0  0  0  0  0  0  0  0  0  0  0
   91.9397   45.1483   72.4540 C   0  0  0  0  0  0  0  0  0  0  0  0
   92.7765   46.2866   71.9299 C   0  0  0  0  0  0  0  0  0  0  0  0
   98.9922   45.5384   74.9285 P   0  0  0  0  0  4  0  0  0  0  0  0
  1 29  2  0
  2  7  1  0
  3 11  1  0
  4 12  1  0
  4 20  1  0
  4 24  1  0
  5  8  1  0
  6  8  1  0
  6 14  1  0
  7 11  1  0
  7 18  1  0
  8  9  1  0
  9 21  1  0
  9 27  1  0
 10 16  1  0
 10 20  1  0
 11 25  1  0
 12 28  1  0
 13 23  1  0
 14 20  1  0
 14 28  1  0
 15 18  1  0
 15 29  1  0
 16 17  1  0
 16 24  1  0
 17 23  1  0
 18 19  2  0
 22 29  1  0
 23 25  1  0
 24 25  1  0
 26 29  1  0
 27 28  1  0
M  END
>  <ID>  (1) 
conformer_0

$$$$
