
     RDKit          3D

 32 33  0  0  0  0  0  0  0  0999 V2000
   95.7403   51.0093   73.5425 C   0  0  0  0  0  0  0  0  0  0  0  0
   90.5528   45.5843   72.0276 N   0  0  0  0  0  0  0  0  0  0  0  0
   91.7657   46.0129   72.7698 C   0  0  0  0  0  0  0  0  0  0  0  0
   89.7109   44.6841   72.5448 N   0  0  0  0  0  0  0  0  0  0  0  0
   93.4061   50.5764   73.9865 O   0  0  0  0  0  0  0  0  0  0  0  0
   97.9921   52.1161   72.9037 C   0  0  0  0  0  0  0  0  0  0  0  0
   99.4604   45.2665   74.4309 O   0  0  0  0  0  0  0  0  0  0  0  0
   97.3917   44.9822   75.9251 O   0  0  0  0  0  1  0  0  0  0  0  0
   91.6437   47.1763   70.7472 C   0  0  0  0  0  0  0  0  0  0  0  0
   89.4961   46.1634   69.9154 O   0  0  0  0  0  0  0  0  0  0  0  0
   98.3621   46.0636   75.4427 P   0  0  0  0  0  4  0  0  0  0  0  0
   96.7893   51.2432   72.4451 C   0  0  0  0  0  0  0  0  0  0  0  0
   92.0474   47.9944   69.7660 N   0  0  0  0  0  0  0  0  0  0  0  0
   97.5853   47.0943   74.4518 O   0  0  0  0  0  0  0  0  0  0  0  0
   95.6561   48.6275   73.7167 O   0  0  0  0  0  0  0  0  0  0  0  0
   98.5821   51.7219   74.0716 O   0  0  0  0  0  0  0  0  0  0  0  0
   99.0105   52.3343   71.8884 C   0  0  0  0  0  0  0  0  0  0  0  0
   97.1103   49.8565   75.2093 O   0  0  0  0  0  0  0  0  0  0  0  0
   90.4581   46.2972   70.8212 C   0  0  0  0  0  0  0  0  0  0  0  0
   93.7674   48.7123   71.0944 N   0  0  0  0  0  0  0  0  0  0  0  0
   95.1201   46.2039   74.2780 O   0  0  0  0  0  1  0  0  0  0  0  0
   93.1351   48.7552   69.9318 C   0  0  0  0  0  0  0  0  0  0  0  0
   95.7867   47.6352   76.2208 O   0  0  0  0  0  0  0  0  0  0  0  0
   95.9916   47.3435   74.7217 P   0  0  0  0  0  4  0  0  0  0  0  0
   99.6796   44.0059   75.0504 O   0  0  0  0  0  0  0  0  0  0  0  0
   93.5785   47.6900   71.9100 C   0  0  0  0  0  0  0  0  0  0  0  0
   96.0992   51.9599   71.4355 O   0  0  0  0  0  0  0  0  0  0  0  0
   92.4040   46.9612   71.9033 C   0  0  0  0  0  0  0  0  0  0  0  0
   94.5130   49.8954   71.6844 C   0  0  0  0  0  0  0  0  0  0  0  0
   95.9037   49.8179   74.4510 C   0  0  0  0  0  0  0  0  0  0  0  0
   94.3557   50.7699   72.8882 C   0  0  0  0  0  0  0  0  0  0  0  0
   99.1548   46.7108   76.5382 O   0  0  0  0  0  0  0  0  0  0  0  0
  1 12  1  0
  1 30  1  0
  1 31  1  0
  2  3  1  0
  2  4  1  0
  2 19  1  0
  3 28  1  0
  5 31  1  0
  6 12  1  0
  6 16  1  0
  6 17  1  0
  7 11  1  0
  7 25  1  0
  8 11  2  0
  9 13  1  0
  9 19  1  0
  9 28  2  0
 10 19  2  0
 11 14  1  0
 11 32  1  0
 12 27  1  0
 13 22  2  0
 14 24  1  0
 15 24  1  0
 15 30  1  0
 18 30  1  0
 20 22  1  0
 20 26  1  0
 20 29  1  0
 21 24  2  0
 23 24  1  0
 26 28  1  0
 29 31  1  0
M  END
>  <ID>  (1) 
conformer_0

$$$$
