
     RDKit          3D

 30 32  0  0  0  0  0  0  0  0999 V2000
   89.7387   45.5467   71.4164 N   0  0  0  0  0  0  0  0  0  0  0  0
   89.5598   47.3419   69.9903 N   0  0  0  0  0  0  0  0  0  0  0  0
   97.2607   50.4454   73.8934 C   0  0  0  0  0  0  0  0  0  0  0  0
   95.7060   52.2862   73.4438 C   0  0  0  0  0  0  0  0  0  0  0  0
   97.6704   45.9915   73.9404 O   0  0  0  0  0  1  0  0  0  0  0  0
   97.0231   46.8669   75.0598 P   0  0  0  0  0  4  0  0  0  0  0  0
   93.6539   47.8475   71.4649 C   0  0  0  0  0  0  0  0  0  0  0  0
   94.6862   46.3793   73.0502 C   0  0  0  0  0  0  0  0  0  0  0  0
   96.3056   48.1481   73.9060 C   0  0  0  0  0  0  0  0  0  0  0  0
   93.5566   46.7366   72.2694 N   0  0  0  0  0  0  0  0  0  0  0  0
   96.0598   52.2049   71.9466 C   0  0  0  0  0  0  0  0  0  0  0  0
   99.5050   44.3603   75.7252 O   0  0  0  0  0  1  0  0  0  0  0  0
   92.4917   48.0160   70.7470 C   0  0  0  0  0  0  0  0  0  0  0  0
   97.5898   52.1975   71.6520 C   0  0  0  0  0  0  0  0  0  0  0  0
   95.8783   47.2602   72.7648 C   0  0  0  0  0  0  0  0  0  0  0  0
  100.7331   46.1753   77.0075 O   0  0  0  0  0  0  0  0  0  0  0  0
   98.4353   49.9965   74.1559 O   0  0  0  0  0  0  0  0  0  0  0  0
   94.5820   48.9840   71.5425 C   0  0  0  0  0  0  0  0  0  0  0  0
   92.2932   46.1967   72.1340 C   0  0  0  0  0  0  0  0  0  0  0  0
   94.9122   49.8252   72.7557 C   0  0  0  0  0  0  0  0  0  0  0  0
   98.4173   46.5693   76.0413 O   0  0  0  0  0  0  0  0  0  0  0  0
   96.1975   49.5648   73.4424 C   0  0  0  0  0  0  0  0  0  0  0  0
   91.6033   47.0108   71.1868 C   0  0  0  0  0  0  0  0  0  0  0  0
   90.4663   44.8135   72.2976 C   0  0  0  0  0  0  0  0  0  0  0  0
   91.7167   45.0609   72.6307 N   0  0  0  0  0  0  0  0  0  0  0  0
   95.9157   46.7616   76.1117 O   0  0  0  0  0  0  0  0  0  0  0  0
  100.4179   46.3675   74.5450 O   0  0  0  0  0  0  0  0  0  0  0  0
   96.8588   51.7153   74.2357 N   0  0  0  0  0  0  0  0  0  0  0  0
   99.8493   45.8382   75.8142 P   0  0  0  0  0  4  0  0  0  0  0  0
   90.2373   46.6309   70.8422 C   0  0  0  0  0  0  0  0  0  0  0  0
  1 24  1  0
  1 30  1  0
  2 30  2  0
  3 17  2  0
  3 22  1  0
  3 28  1  0
  4 11  1  0
  4 28  1  0
  5  6  2  0
  6  9  1  0
  6 21  1  0
  6 26  1  0
  7 10  1  0
  7 13  1  0
  7 18  1  0
  8 10  1  0
  8 15  1  0
  9 15  1  0
  9 22  1  0
 10 19  1  0
 11 14  1  0
 12 29  2  0
 13 23  1  0
 16 29  1  0
 18 20  1  0
 19 23  2  0
 19 25  1  0
 20 22  1  0
 21 29  1  0
 23 30  1  0
 24 25  2  0
 27 29  1  0
M  END
>  <ID>  (1) 
conformer_0

$$$$
