
     RDKit          3D

 26 28  0  0  0  0  0  0  0  0999 V2000
   95.8601   47.0769   75.2888 O   0  0  0  0  0  0  0  0  0  0  0  0
   99.8621   45.0082   75.0003 O   0  0  0  0  0  1  0  0  0  0  0  0
   95.0545   48.4698   72.9990 C   0  0  0  0  0  0  0  0  0  0  0  0
   94.7722   47.7237   71.6917 C   0  0  0  0  0  0  0  0  0  0  0  0
   96.8680   47.3974   74.4508 C   0  0  0  0  0  0  0  0  0  0  0  0
   89.5090   46.4294   69.4448 N   0  0  0  0  0  0  0  0  0  0  0  0
   91.5091   46.3503   72.3782 C   0  0  0  0  0  0  0  0  0  0  0  0
   94.7031   49.9060   72.6169 C   0  0  0  0  0  0  0  0  0  0  0  0
   92.3483   47.7995   70.8519 C   0  0  0  0  0  0  0  0  0  0  0  0
   96.7357   49.7250   73.8528 O   0  0  0  0  0  0  0  0  0  0  0  0
   95.4269   46.5586   71.5152 O   0  0  0  0  0  0  0  0  0  0  0  0
   90.0101   46.2816   70.6320 C   0  0  0  0  0  0  0  0  0  0  0  0
   97.6939   45.0402   76.2142 O   0  0  0  0  0  0  0  0  0  0  0  0
   98.2287   47.0300   74.6482 O   0  0  0  0  0  0  0  0  0  0  0  0
   99.5427   46.7102   76.8525 O   0  0  0  0  0  0  0  0  0  0  0  0
   93.2995   47.6222   71.8501 N   0  0  0  0  0  0  0  0  0  0  0  0
   92.7742   46.7566   72.7846 C   0  0  0  0  0  0  0  0  0  0  0  0
   91.2583   46.9310   71.1122 C   0  0  0  0  0  0  0  0  0  0  0  0
   98.8509   45.9211   75.7419 P   0  0  0  0  0  4  0  0  0  0  0  0
   90.3605   45.5071   72.6220 C   0  0  0  0  0  0  0  0  0  0  0  0
   89.4973   45.5229   71.5855 N   0  0  0  0  0  0  0  0  0  0  0  0
   96.4974   48.3874   73.3768 C   0  0  0  0  0  0  0  0  0  0  0  0
   95.7060   50.6311   73.4665 C   0  0  0  0  0  0  0  0  0  0  0  0
   94.8315   50.1958   71.2313 O   0  0  0  0  0  0  0  0  0  0  0  0
   90.1585   44.7982   73.9035 C   0  0  0  0  0  0  0  0  0  0  0  0
   95.7937   51.9347   73.4726 O   0  0  0  0  0  0  0  0  0  0  0  0
  1  5  2  0
  2 19  2  0
  3  4  1  0
  3  8  1  0
  3 22  1  0
  4 11  1  0
  4 16  1  0
  5 14  1  0
  5 22  1  0
  6 12  2  0
  7 17  1  0
  7 18  1  0
  7 20  2  0
  8 23  1  0
  8 24  1  0
  9 16  1  0
  9 18  1  0
 10 22  1  0
 10 23  1  0
 12 18  1  0
 12 21  1  0
 13 19  1  0
 14 19  1  0
 15 19  1  0
 16 17  1  0
 20 21  1  0
 20 25  1  0
 23 26  2  0
M  END
>  <ID>  (1) 
conformer_0

$$$$
