
     RDKit          3D

 16 15  0  0  0  0  0  0  0  0999 V2000
   96.5010   46.6961   74.0551 O   0  0  0  0  0  0  0  0  0  0  0  0
   95.6359   47.6886   74.4743 C   0  0  0  0  0  0  0  0  0  0  0  0
   98.3078   47.3903   75.7880 O   0  0  0  0  0  1  0  0  0  0  0  0
   97.0743   45.1999   76.0667 O   0  0  0  0  0  0  0  0  0  0  0  0
   94.8860   49.3111   72.9807 O   0  0  0  0  0  0  0  0  0  0  0  0
   89.8380   46.3065   70.8265 S   0  0  0  0  0  0  0  0  0  0  0  0
   92.2975   46.3987   72.0159 N   0  0  0  0  0  0  0  0  0  0  0  0
   95.3320   48.6416   71.7279 C   0  0  0  0  0  0  0  0  0  0  0  0
   90.7007   44.5280   72.6140 C   0  0  0  0  0  0  0  0  0  0  0  0
   98.7023   45.4496   74.1573 O   0  0  0  0  0  0  0  0  0  0  0  0
   93.8797   49.2066   69.9230 O   0  0  0  0  0  0  0  0  0  0  0  0
   91.0666   45.6422   71.7536 C   0  0  0  0  0  0  0  0  0  0  0  0
   94.4180   48.3108   73.9059 C   0  0  0  0  0  0  0  0  0  0  0  0
   94.0972   48.2020   70.9339 C   0  0  0  0  0  0  0  0  0  0  0  0
   92.9132   47.2604   70.9611 C   0  0  0  0  0  0  0  0  0  0  0  0
   97.6931   46.1334   75.0772 P   0  0  0  0  0  4  0  0  0  0  0  0
  1  2  1  0
  1 16  1  0
  2 13  1  0
  3 16  2  0
  4 16  1  0
  5  8  1  0
  5 13  1  0
  6 12  2  0
  7 12  1  0
  7 15  2  3
  8 14  1  0
  9 12  1  0
 10 16  1  0
 11 14  1  0
 14 15  1  0
M  END
>  <ID>  (1) 
conformer_0

$$$$
