
     RDKit          3D

 27 28  0  0  0  0  0  0  0  0999 V2000
   91.2000   45.4889   72.3890 C   0  0  0  0  0  0  0  0  0  0  0  0
   94.8103   46.2223   72.2808 C   0  0  0  0  0  0  0  0  0  0  0  0
   94.0677   49.6234   70.2854 O   0  0  0  0  0  0  0  0  0  0  0  0
   94.9834   48.7202   72.4361 C   0  0  0  0  0  0  0  0  0  0  0  0
   93.4227   46.7870   72.4079 C   0  0  0  0  0  0  0  0  0  0  0  0
   92.1079   46.4551   71.9432 C   0  0  0  0  0  0  0  0  0  0  0  0
   92.2905   51.3405   71.4161 O   0  0  0  0  0  0  0  0  0  0  0  0
   95.8101   50.7561   71.3893 O   0  0  0  0  0  0  0  0  0  0  0  0
   95.3719   49.4067   73.8076 C   0  0  0  0  0  0  0  0  0  0  0  0
   95.8234   47.3209   72.6744 C   0  0  0  0  0  0  0  0  0  0  0  0
   98.8756   45.4144   75.4075 P   0  0  0  0  0  4  0  0  0  0  0  0
   93.6379   48.1903   72.5234 N   0  0  0  0  0  0  0  0  0  0  0  0
   91.4550   47.0943   70.8594 C   0  0  0  0  0  0  0  0  0  0  0  0
   93.4379   50.9910   72.1981 C   0  0  0  0  0  0  0  0  0  0  0  0
   95.8663   47.0105   76.2867 O   0  0  0  0  0  1  0  0  0  0  0  0
   99.3056   45.4883   73.9042 O   0  0  0  0  0  1  0  0  0  0  0  0
   94.5760   50.2112   71.4434 C   0  0  0  0  0  0  0  0  0  0  0  0
   99.4959   44.2539   76.1188 O   0  0  0  0  0  0  0  0  0  0  0  0
   96.7094   48.7549   74.3584 C   0  0  0  0  0  0  0  0  0  0  0  0
   96.5956   47.3270   73.9413 O   0  0  0  0  0  0  0  0  0  0  0  0
   97.2772   45.2517   75.3315 O   0  0  0  0  0  0  0  0  0  0  0  0
   96.4768   46.4722   75.1493 P   0  0  0  0  0  4  0  0  0  0  0  0
   91.2727   44.6295   73.4108 N   0  0  0  0  0  0  0  0  0  0  0  0
   89.3617   46.7042   69.6222 N   0  0  0  0  0  0  0  0  0  0  0  0
   99.1604   46.7055   76.2533 O   0  0  0  0  0  0  0  0  0  0  0  0
   90.0750   45.4864   71.5430 N   0  0  0  0  0  0  0  0  0  0  0  0
   90.2515   46.4906   70.5884 C   0  0  0  0  0  0  0  0  0  0  0  0
  1  6  1  0
  1 23  2  0
  1 26  1  0
  2  5  1  0
  2 10  1  0
  3 17  1  0
  4  9  1  0
  4 10  1  0
  4 12  1  0
  4 17  1  0
  5  6  1  0
  5 12  1  0
  6 13  1  0
  7 14  1  0
  8 17  1  0
  9 19  1  0
 10 20  1  0
 11 16  2  0
 11 18  1  0
 11 21  1  0
 11 25  1  0
 13 27  1  0
 14 17  1  0
 15 22  2  0
 20 22  1  0
 21 22  1  0
 24 27  2  0
 26 27  1  0
M  END
>  <ID>  (1) 
conformer_0

$$$$
