
     RDKit          3D

 27 26  0  0  0  0  0  0  0  0999 V2000
   96.4678   49.4937   73.8806 C   0  0  0  0  0  0  0  0  0  0  0  0
   97.0118   50.7150   73.2655 C   0  0  0  0  0  0  0  0  0  0  0  0
   99.8090   46.8491   75.2045 C   0  0  0  0  0  0  0  0  0  0  0  0
   93.5757   47.1673   71.1923 C   0  0  0  0  0  0  0  0  0  0  0  0
   95.6819   46.8617   73.3698 C   0  0  0  0  0  0  0  0  0  0  0  0
   99.0993   45.6943   74.5844 C   0  0  0  0  0  0  0  0  0  0  0  0
   96.7643   46.9027   74.3340 N   0  0  0  0  0  0  0  0  0  0  0  0
   96.9299   49.2542   75.2966 C   0  0  0  0  0  0  0  0  0  0  0  0
   97.2214   50.4513   71.7330 C   0  0  0  0  0  0  0  0  0  0  0  0
   91.4198   47.0746   69.9726 O   0  0  0  0  0  0  0  0  0  0  0  0
   89.0650   45.1541   72.4614 O   0  0  0  0  0  0  0  0  0  0  0  0
   94.3207   46.9738   73.6843 N   0  0  0  0  0  0  0  0  0  0  0  0
   92.1502   49.0402   70.8772 N   0  0  0  0  0  0  0  0  0  0  0  0
   91.2824   49.6617   69.8691 C   0  0  0  0  0  0  0  0  0  0  0  0
   98.7713   44.6855   75.5280 O   0  0  0  0  0  0  0  0  0  0  0  0
   92.2861   47.6762   70.6790 C   0  0  0  0  0  0  0  0  0  0  0  0
   97.8594   46.0974   73.8514 C   0  0  0  0  0  0  0  0  0  0  0  0
  100.0581   45.1272   73.5306 C   0  0  0  0  0  0  0  0  0  0  0  0
   97.0046   47.7569   75.5948 S   0  0  0  0  0  0  0  0  0  0  0  0
   96.0199   46.6307   72.1753 O   0  0  0  0  0  0  0  0  0  0  0  0
   93.4421   46.7277   72.6407 C   0  0  0  0  0  0  0  0  0  0  0  0
   91.1643   51.1186   70.1219 C   0  0  0  0  0  0  0  0  0  0  0  0
   91.3053   45.7371   72.1248 C   0  0  0  0  0  0  0  0  0  0  0  0
   92.1881   51.5744   71.1085 C   0  0  0  0  0  0  0  0  0  0  0  0
   90.2819   44.8806   72.7138 C   0  0  0  0  0  0  0  0  0  0  0  0
   90.7018   43.8448   73.3984 O   0  0  0  0  0  0  0  0  0  0  0  0
   92.6760   45.4639   72.6696 C   0  0  0  0  0  0  0  0  0  0  0  0
  1  2  1  0
  1  8  1  0
  2  9  1  0
  3  6  1  0
  4 16  1  0
  4 21  1  0
  5  7  1  0
  5 12  1  0
  5 20  2  0
  6 15  1  0
  6 17  1  0
  6 18  1  0
  7 17  1  0
  7 19  1  0
  8 19  1  0
 10 16  2  0
 11 25  2  0
 12 21  1  0
 13 14  1  0
 13 16  1  0
 14 22  1  0
 21 27  1  0
 22 24  1  0
 23 25  1  0
 23 27  1  0
 25 26  1  0
M  END
>  <ID>  (1) 
conformer_0

$$$$
