
     RDKit          3D

 27 27  0  0  0  0  0  0  0  0999 V2000
   96.4786   46.7799   72.2680 O   0  0  0  0  0  0  0  0  0  0  0  0
   97.9535   46.3666   74.6533 O   0  0  0  0  0  0  0  0  0  0  0  0
   94.1737   50.8622   73.7579 O   0  0  0  0  0  0  0  0  0  0  0  0
   93.6724   51.6346   71.1168 O   0  0  0  0  0  0  0  0  0  0  0  0
   95.4201   50.2882   73.5450 C   0  0  0  0  0  0  0  0  0  0  0  0
   92.3449   51.4086   71.4921 C   0  0  0  0  0  0  0  0  0  0  0  0
   89.9880   46.1605   70.9211 C   0  0  0  0  0  0  0  0  0  0  0  0
  100.4605   46.6227   74.4244 O   0  0  0  0  0  1  0  0  0  0  0  0
   91.5811   49.2245   70.4916 C   0  0  0  0  0  0  0  0  0  0  0  0
   96.1331   48.0064   74.3406 C   0  0  0  0  0  0  0  0  0  0  0  0
   91.0040   43.9795   73.5791 N   0  0  0  0  0  0  0  0  0  0  0  0
   92.4753   45.5145   72.3506 C   0  0  0  0  0  0  0  0  0  0  0  0
   96.2896   50.1892   72.3818 C   0  0  0  0  0  0  0  0  0  0  0  0
   93.9273   45.8663   72.2255 C   0  0  0  0  0  0  0  0  0  0  0  0
   91.1512   44.9165   72.5044 C   0  0  0  0  0  0  0  0  0  0  0  0
   91.9763   48.3830   71.5520 N   0  0  0  0  0  0  0  0  0  0  0  0
   99.4926   44.4155   75.3580 O   0  0  0  0  0  0  0  0  0  0  0  0
   90.0535   45.1375   71.7231 N   0  0  0  0  0  0  0  0  0  0  0  0
   97.4588   47.6779   74.9729 C   0  0  0  0  0  0  0  0  0  0  0  0
   95.7475   47.0002   73.3120 C   0  0  0  0  0  0  0  0  0  0  0  0
   99.4445   45.9631   75.3807 P   0  0  0  0  0  4  0  0  0  0  0  0
   95.7755   49.4126   74.6831 C   0  0  0  0  0  0  0  0  0  0  0  0
   90.5990   48.3022   70.0656 N   0  0  0  0  0  0  0  0  0  0  0  0
   91.5758   50.6610   70.5214 C   0  0  0  0  0  0  0  0  0  0  0  0
   99.6072   46.5311   76.8448 O   0  0  0  0  0  0  0  0  0  0  0  0
   94.5403   46.3382   73.4065 N   0  0  0  0  0  0  0  0  0  0  0  0
   90.9518   47.3296   71.0714 C   0  0  0  0  0  3  0  0  0  0  0  0
  1 20  2  0
  2 19  1  0
  2 21  1  0
  3  5  1  0
  4  6  1  0
  5 13  1  0
  5 22  1  0
  6 24  1  0
  7 18  1  0
  7 27  1  0
  8 21  2  0
  9 16  2  0
  9 23  1  0
  9 24  1  0
 10 19  1  0
 10 20  1  0
 10 22  1  0
 11 15  1  0
 12 14  2  0
 12 15  2  0
 14 26  1  0
 15 18  1  0
 16 27  1  0
 17 21  1  0
 20 26  1  0
 21 25  1  0
 23 27  1  0
M  END
>  <ID>  (1) 
conformer_0

$$$$
