
     RDKit          3D

 22 23  0  0  0  0  0  0  0  0999 V2000
   92.3027   46.5627   72.1354 C   0  0  0  0  0  0  0  0  0  0  0  0
   93.5139   47.2089   72.7061 C   0  0  0  0  0  0  0  0  0  0  0  0
   93.8698   50.0669   71.8804 C   0  0  0  0  0  0  0  0  0  0  0  0
   99.4776   45.7547   74.3318 O   0  0  0  0  0  1  0  0  0  0  0  0
   90.0244   45.4891   71.1772 N   0  0  0  0  0  0  0  0  0  0  0  0
   97.6903   44.3094   75.4149 O   0  0  0  0  0  0  0  0  0  0  0  0
   90.4005   46.6895   70.7238 C   0  0  0  0  0  0  0  0  0  0  0  0
   94.9380   51.6453   73.5139 O   0  0  0  0  0  0  0  0  0  0  0  0
   94.6077   46.4388   73.2721 O   0  0  0  0  0  0  0  0  0  0  0  0
   90.7683   44.8197   72.0990 C   0  0  0  0  0  0  0  0  0  0  0  0
   98.1454   45.7061   75.0578 P   0  0  0  0  0  4  0  0  0  0  0  0
   93.8951   51.3055   71.1403 O   0  0  0  0  0  0  0  0  0  0  0  0
   93.9696   48.4591   71.9439 C   0  0  0  0  0  0  0  0  0  0  0  0
   95.4525   48.4491   72.2382 O   0  0  0  0  0  0  0  0  0  0  0  0
   97.0977   46.2771   73.9513 O   0  0  0  0  0  0  0  0  0  0  0  0
   91.8683   45.3780   72.6467 N   0  0  0  0  0  0  0  0  0  0  0  0
   94.4855   50.4044   73.2298 C   0  0  0  0  0  0  0  0  0  0  0  0
   95.3973   47.2389   75.5152 O   0  0  0  0  0  1  0  0  0  0  0  0
   95.7081   46.8047   74.2201 P   0  0  0  0  0  4  0  0  0  0  0  0
   98.2114   46.5427   76.3282 O   0  0  0  0  0  0  0  0  0  0  0  0
   91.5237   47.2871   71.2509 C   0  0  0  0  0  0  0  0  0  0  0  0
   95.3715   49.2321   73.5112 C   0  0  0  0  0  0  0  0  0  0  0  0
  1  2  1  0
  1 16  1  0
  1 21  2  0
  2  9  1  0
  2 13  1  0
  3 12  1  0
  3 13  1  0
  3 17  1  0
  4 11  2  0
  5  7  2  0
  5 10  1  0
  6 11  1  0
  7 21  1  0
  8 17  1  0
  9 19  1  0
 10 16  2  0
 11 15  1  0
 11 20  1  0
 13 14  1  0
 14 22  1  0
 15 19  1  0
 17 22  1  0
 18 19  2  0
M  END
>  <ID>  (1) 
conformer_0

$$$$
