
     RDKit          3D

 28 28  0  0  0  0  0  0  0  0999 V2000
   96.4034   46.5512   75.5567 O   0  0  0  0  0  0  0  0  0  0  0  0
   99.8347   43.9361   74.5748 O   0  0  0  0  0  1  0  0  0  0  0  0
   98.6327   46.0947   74.7185 O   0  0  0  0  0  0  0  0  0  0  0  0
   92.1173   47.1849   71.8788 C   0  0  0  0  0  0  0  0  0  0  0  0
   91.5167   46.2709   72.7073 N   0  0  0  0  0  0  0  0  0  0  0  0
   96.5002   48.7730   74.6087 C   0  0  0  0  0  0  0  0  0  0  0  0
   90.5644   45.3079   72.5222 C   0  0  0  0  0  0  0  0  0  0  0  0
  100.8680   46.0061   73.5592 O   0  0  0  0  0  0  0  0  0  0  0  0
   94.1948   49.8925   70.9747 O   0  0  0  0  0  0  0  0  0  0  0  0
   91.9853   47.1025   70.3911 C   0  0  0  0  0  0  0  0  0  0  0  0
   92.9366   48.7844   68.7078 O   0  0  0  0  0  0  0  0  0  0  0  0
   95.3645   51.6677   72.2149 C   0  0  0  0  0  0  0  0  0  0  0  0
   96.0478   46.6146   71.9750 O   0  0  0  0  0  0  0  0  0  0  0  0
   96.8365   52.3001   72.0621 C   0  0  0  0  0  0  0  0  0  0  0  0
  100.6599   45.8835   76.0918 O   0  0  0  0  0  0  0  0  0  0  0  0
   96.5441   47.2856   74.3005 C   0  0  0  0  0  0  0  0  0  0  0  0
   93.8996   48.4450   70.8928 C   0  0  0  0  0  0  0  0  0  0  0  0
   96.6340   49.1892   75.8751 O   0  0  0  0  0  0  0  0  0  0  0  0
   95.4695   50.2224   71.6554 C   0  0  0  0  0  0  0  0  0  0  0  0
   89.4531   45.4883   71.9735 O   0  0  0  0  0  0  0  0  0  0  0  0
   93.2626   47.9848   72.1874 C   0  0  0  0  0  0  0  0  0  0  0  0
   92.9443   48.0631   69.8315 C   0  0  0  0  0  0  0  0  0  0  0  0
   94.2157   47.5397   73.2886 C   0  0  0  0  0  0  0  0  0  0  0  0
   90.8418   44.0166   72.9953 N   0  0  0  0  0  0  0  0  0  0  0  0
   93.8095   46.6550   74.1734 O   0  0  0  0  0  0  0  0  0  0  0  0
  100.0603   45.4623   74.7168 P   0  0  0  0  0  4  0  0  0  0  0  0
   97.9163   46.8448   73.8083 C   0  0  0  0  0  0  0  0  0  0  0  0
   95.6873   47.4176   73.0025 C   0  0  0  0  0  0  0  0  0  0  0  0
  1 16  1  0
  2 26  2  0
  3 26  1  0
  3 27  1  0
  4  5  2  3
  4 10  1  0
  4 21  1  0
  5  7  1  0
  6 16  1  0
  6 18  1  0
  7 20  2  0
  7 24  1  0
  8 26  1  0
  9 17  1  0
  9 19  1  0
 10 22  1  0
 11 22  1  0
 12 14  1  0
 12 19  1  0
 13 28  1  0
 15 26  1  0
 16 27  1  0
 16 28  1  0
 17 21  1  0
 17 22  1  0
 21 23  1  0
 23 25  1  0
 23 28  1  0
M  END
>  <ID>  (1) 
conformer_0

$$$$
