
     RDKit          3D

 25 26  0  0  0  0  0  0  0  0999 V2000
   99.3758   46.3271   75.5319 C   0  0  0  0  0  0  0  0  0  0  0  0
   95.9336   51.4076   73.2713 C   0  0  0  0  0  0  0  0  0  0  0  0
   90.2637   47.1458   69.3549 N   0  0  0  0  0  0  0  0  0  0  0  0
   92.4082   48.2555   70.6983 C   0  0  0  0  0  0  0  0  0  0  0  0
   91.7890   47.1836   71.3153 C   0  0  0  0  0  0  0  0  0  0  0  0
   96.1679   52.1029   74.4366 N   0  0  0  0  0  0  0  0  0  0  0  0
   93.9397   48.2363   72.3536 C   0  0  0  0  0  0  0  0  0  0  0  0
   90.0093   45.6282   71.2188 N   0  0  0  0  0  0  0  0  0  0  0  0
   96.3975   47.6788   72.8800 C   0  0  0  0  0  0  0  0  0  0  0  0
   96.2614   51.9295   72.0885 N   0  0  0  0  0  0  0  0  0  0  0  0
   96.0453   46.6322   75.7919 O   0  0  0  0  0  0  0  0  0  0  0  0
   93.7247   46.4807   73.8188 O   0  0  0  0  0  0  0  0  0  0  0  0
  100.3117   45.8799   74.8597 O   0  0  0  0  0  0  0  0  0  0  0  0
   90.7117   45.4298   72.3556 C   0  0  0  0  0  0  0  0  0  0  0  0
   95.2611   48.8341   72.9376 C   0  0  0  0  0  0  0  0  0  0  0  0
   93.1456   47.0911   72.8029 C   0  0  0  0  0  0  0  0  0  0  0  0
   91.8919   46.4061   72.4575 N   0  0  0  0  0  0  0  0  0  0  0  0
   99.3308   47.4307   76.1340 O   0  0  0  0  0  0  0  0  0  0  0  0
   90.6129   46.6778   70.5322 C   0  0  0  0  0  0  0  0  0  0  0  0
   97.4357   47.1645   73.8799 C   0  0  0  0  0  0  0  0  0  0  0  0
   90.4056   44.4032   73.2524 N   0  0  0  0  0  0  0  0  0  0  0  0
   96.9678   46.2321   74.9292 C   0  0  0  0  0  0  0  0  0  0  0  0
   98.0946   45.4744   75.5462 C   0  0  0  0  0  0  0  0  0  0  0  0
   93.5217   48.8667   71.1360 C   0  0  0  0  0  0  0  0  0  0  0  0
   94.8637   50.3544   73.4453 C   0  0  0  0  0  0  0  0  0  0  0  0
  1 13  2  0
  1 18  1  0
  1 23  1  0
  2  6  2  0
  2 10  1  0
  2 25  1  0
  3 19  2  0
  4  5  2  0
  4 24  1  0
  5 17  1  0
  5 19  1  0
  7 15  1  0
  7 16  1  0
  7 24  1  0
  8 14  1  0
  8 19  1  0
  9 15  1  0
  9 20  1  0
 11 22  1  0
 12 16  2  0
 14 17  1  0
 14 21  2  0
 15 25  1  0
 16 17  1  0
 20 22  1  0
 22 23  1  0
M  END
>  <ID>  (1) 
conformer_0

$$$$
