
     RDKit          3D

 23 22  0  0  0  0  0  0  0  0999 V2000
   99.6678   44.5583   75.4541 N   0  0  0  0  0  0  0  0  0  0  0  0
   90.2126   45.6650   71.2378 O   0  0  0  0  0  0  0  0  0  0  0  0
   96.5301   48.9526   73.1285 C   0  0  0  0  0  0  0  0  0  0  0  0
   90.4053   43.9392   72.5610 N   0  0  0  0  0  0  0  0  0  0  0  0
   94.5860   51.2712   72.8275 C   0  0  0  0  0  0  0  0  0  0  0  0
   94.3559   49.7248   70.4599 O   0  0  0  0  0  0  0  0  0  0  0  0
   95.4123   51.3608   74.1246 N   0  0  0  0  0  0  0  0  0  0  0  0
   94.8455   50.2651   71.7246 C   0  0  0  0  0  0  0  0  0  0  0  0
   96.5782   47.4407   73.6426 C   0  0  0  0  0  0  0  0  0  0  0  0
   97.2198   50.6539   71.4164 O   0  0  0  0  0  0  0  0  0  0  0  0
   97.8188   45.9861   75.2651 C   0  0  0  0  0  0  0  0  0  0  0  0
   96.2887   49.7150   71.8568 C   0  0  0  0  0  0  0  0  0  0  0  0
   96.9347   45.0204   75.2859 O   0  0  0  0  0  0  0  0  0  0  0  0
   95.2029   46.8988   74.1182 C   0  0  0  0  0  0  0  0  0  0  0  0
   99.4659   46.3103   76.9219 O   0  0  0  0  0  0  0  0  0  0  0  0
   90.8510   45.1916   72.1936 C   0  0  0  0  0  0  0  0  0  0  0  0
   91.8278   45.7600   73.0719 C   0  0  0  0  0  0  0  0  0  0  0  0
   92.7372   47.6999   71.9618 N   0  0  0  0  0  0  0  0  0  0  0  0
   97.7224   47.3097   74.6859 C   0  0  0  0  0  0  0  0  0  0  0  0
   92.8822   46.6377   72.8868 C   0  0  0  0  0  0  0  0  0  0  0  0
   94.2922   46.1923   73.1039 C   0  0  0  0  0  0  0  0  0  0  0  0
   92.5185   47.4234   70.5256 C   0  0  0  0  0  0  0  0  0  0  0  0
   99.1037   45.6325   75.9589 C   0  0  0  0  0  0  0  0  0  0  0  0
  1 23  1  0
  2 16  2  0
  3  9  1  0
  3 12  1  0
  4 16  1  0
  5  7  1  0
  5  8  1  0
  6  8  1  0
  8 12  1  0
  9 14  1  0
  9 19  1  0
 10 12  1  0
 11 13  1  0
 11 19  1  0
 11 23  1  0
 14 21  1  0
 15 23  2  0
 16 17  1  0
 17 20  1  0
 18 20  1  0
 18 22  1  0
 20 21  1  0
M  END
>  <ID>  (1) 
conformer_0

$$$$
