
     RDKit          3D

 25 26  0  0  0  0  0  0  0  0999 V2000
   90.7471   45.3320   72.4012 C   0  0  0  0  0  0  0  0  0  0  0  0
   95.2641   50.4185   74.3950 O   0  0  0  0  0  0  0  0  0  0  0  0
   99.5360   44.6920   76.2845 O   0  0  0  0  0  1  0  0  0  0  0  0
   98.5170   45.2563   75.3165 P   0  0  0  0  0  4  0  0  0  0  0  0
   96.3199   51.8157   72.1761 C   0  0  0  0  0  0  0  0  0  0  0  0
   95.1233   46.5356   74.7124 O   0  0  0  0  0  0  0  0  0  0  0  0
   95.8760   49.7044   73.3700 C   0  0  0  0  0  0  0  0  0  0  0  0
   89.8969   45.5254   71.3623 N   0  0  0  0  0  0  0  0  0  0  0  0
   98.1897   46.9014   75.6316 O   0  0  0  0  0  0  0  0  0  0  0  0
   91.7497   46.8221   71.0202 C   0  0  0  0  0  0  0  0  0  0  0  0
   95.9616   47.3272   74.1407 C   0  0  0  0  0  0  0  0  0  0  0  0
   90.6307   44.3008   73.4156 C   0  0  0  0  0  0  0  0  0  0  0  0
   97.2863   47.4867   74.6188 O   0  0  0  0  0  0  0  0  0  0  0  0
   99.0325   45.3197   73.8598 O   0  0  0  0  0  0  0  0  0  0  0  0
   91.8981   46.2000   72.2916 C   0  0  0  0  0  0  0  0  0  0  0  0
   97.1793   44.5884   75.4828 O   0  0  0  0  0  0  0  0  0  0  0  0
   95.3789   48.2869   73.0894 C   0  0  0  0  0  0  0  0  0  0  0  0
   92.8730   47.4518   70.4806 C   0  0  0  0  0  0  0  0  0  0  0  0
   90.4260   46.4172   70.5285 C   0  0  0  0  0  0  0  0  0  0  0  0
   94.0416   47.5040   72.5846 N   0  0  0  0  0  0  0  0  0  0  0  0
   96.7112   50.3269   72.3175 C   0  0  0  0  0  0  0  0  0  0  0  0
   89.8014   46.8817   69.4845 N   0  0  0  0  0  0  0  0  0  0  0  0
   94.0557   47.5942   71.1487 C   0  0  0  0  0  0  0  0  0  0  0  0
   92.9752   46.6575   73.0823 C   0  0  0  0  0  0  0  0  0  0  0  0
   94.7913   51.7278   71.7377 C   0  0  0  0  0  0  0  0  0  0  0  0
  1  8  1  0
  1 12  1  0
  1 15  1  0
  2  7  1  0
  3  4  2  0
  4  9  1  0
  4 14  1  0
  4 16  1  0
  5 21  1  0
  5 25  1  0
  6 11  2  0
  7 17  1  0
  7 21  1  0
  8 19  1  0
  9 13  1  0
 10 15  1  0
 10 18  2  0
 10 19  1  0
 11 13  1  0
 11 17  1  0
 15 24  2  0
 17 20  1  0
 18 23  1  0
 19 22  2  0
 20 23  1  0
 20 24  1  0
M  END
>  <ID>  (1) 
conformer_0

$$$$
