
     RDKit          3D

 24 26  0  0  0  0  0  0  0  0999 V2000
   91.3072   47.2031   70.5013 N   0  0  0  0  0  0  0  0  0  0  0  0
   94.9355   47.7179   73.9646 O   0  0  0  0  0  0  0  0  0  0  0  0
   98.9737   46.3033   76.6551 O   0  0  0  0  0  1  0  0  0  0  0  0
   90.0229   44.5481   72.5955 N   0  0  0  0  0  0  0  0  0  0  0  0
   94.6723   51.2785   71.7910 O   0  0  0  0  0  0  0  0  0  0  0  0
   92.2982   46.2597   72.5774 C   0  0  0  0  0  0  0  0  0  0  0  0
   94.7476   46.6378   72.9472 C   0  0  0  0  0  0  0  0  0  0  0  0
   96.4710   46.1595   76.1313 O   0  0  0  0  0  0  0  0  0  0  0  0
   93.4478   47.8652   71.1497 C   0  0  0  0  0  0  0  0  0  0  0  0
   93.5118   46.8417   72.1285 C   0  0  0  0  0  0  0  0  0  0  0  0
   95.6929   50.6615   72.4929 C   0  0  0  0  0  0  0  0  0  0  0  0
   98.0277   47.1322   74.3741 O   0  0  0  0  0  0  0  0  0  0  0  0
   95.9829   48.6714   73.6744 C   0  0  0  0  0  0  0  0  0  0  0  0
   97.9084   45.9841   75.5718 P   0  0  0  0  0  4  0  0  0  0  0  0
   97.2782   48.2966   74.3388 C   0  0  0  0  0  0  0  0  0  0  0  0
   92.4706   47.8209   70.1553 C   0  0  0  0  0  0  0  0  0  0  0  0
   96.8593   51.4168   72.4797 O   0  0  0  0  0  0  0  0  0  0  0  0
   95.5797   50.1686   74.0738 C   0  0  0  0  0  0  0  0  0  0  0  0
   89.0149   46.0198   71.2315 O   0  0  0  0  0  0  0  0  0  0  0  0
   98.0903   44.6215   74.9391 O   0  0  0  0  0  0  0  0  0  0  0  0
   91.2537   46.4222   71.6549 C   0  0  0  0  0  0  0  0  0  0  0  0
   94.5920   48.7927   71.1096 C   0  0  0  0  0  0  0  0  0  0  0  0
   90.0236   45.6292   71.8314 C   0  0  0  0  0  0  0  0  0  0  0  0
   95.8071   49.0588   72.1175 C   0  0  0  0  0  0  0  0  0  0  0  0
  1 16  2  0
  1 21  1  0
  2  7  1  0
  2 13  1  0
  3 14  2  0
  4 23  1  0
  5 11  1  0
  6 10  1  0
  6 21  1  0
  7 10  1  0
  8 14  1  0
  9 10  1  0
  9 16  1  0
  9 22  2  0
 11 17  1  0
 11 18  1  0
 11 24  1  0
 12 14  1  0
 12 15  1  0
 13 15  1  0
 13 18  1  0
 13 24  1  0
 14 20  1  0
 19 23  2  0
 21 23  1  0
 22 24  1  0
M  END
>  <ID>  (1) 
conformer_0

$$$$
