
     RDKit          3D

 30 33  0  0  0  0  0  0  0  0999 V2000
   91.5919   47.2567   68.7453 C   0  0  0  0  0  0  0  0  0  0  0  0
   94.7855   51.1876   71.3093 O   0  0  0  0  0  0  0  0  0  0  0  0
   98.9703   46.0993   74.6724 C   0  0  0  0  0  0  0  0  0  0  0  0
  100.5875   46.3799   76.3402 O   0  0  0  0  0  0  0  0  0  0  0  0
   93.4775   47.7114   70.2270 N   0  0  0  0  0  0  0  0  0  0  0  0
   90.7916   46.2351   70.7264 C   0  0  0  0  0  0  0  0  0  0  0  0
   95.8005   51.3081   73.5559 C   0  0  0  0  0  0  0  0  0  0  0  0
   90.6270   46.5868   69.4043 N   0  0  0  0  0  0  0  0  0  0  0  0
   99.7238   45.6506   75.8770 C   0  0  0  0  0  0  0  0  0  0  0  0
   90.2624   45.3426   72.6856 C   0  0  0  0  0  0  0  0  0  0  0  0
   89.7997   45.5202   71.3152 N   0  0  0  0  0  0  0  0  0  0  0  0
   97.6164   46.3644   74.5413 C   0  0  0  0  0  0  0  0  0  0  0  0
   97.1154   50.7450   74.1712 C   0  0  0  0  0  0  0  0  0  0  0  0
   99.3734   44.5468   76.3634 O   0  0  0  0  0  0  0  0  0  0  0  0
   96.0597   46.6038   72.4545 C   0  0  0  0  0  0  0  0  0  0  0  0
   92.7762   47.6837   69.1019 N   0  0  0  0  0  0  0  0  0  0  0  0
   95.9451   47.1001   76.2265 O   0  0  0  0  0  0  0  0  0  0  0  0
   93.0489   47.2625   71.4850 C   0  0  0  0  0  0  0  0  0  0  0  0
   91.8264   46.5282   71.6331 C   0  0  0  0  0  0  0  0  0  0  0  0
   96.0265   51.5147   72.0288 C   0  0  0  0  0  0  0  0  0  0  0  0
   93.7946   47.5009   72.6907 C   0  0  0  0  0  0  0  0  0  0  0  0
   95.7699   48.9268   73.1968 C   0  0  0  0  0  0  0  0  0  0  0  0
   98.5564   46.6641   72.4350 C   0  0  0  0  0  0  0  0  0  0  0  0
   99.5688   46.2889   73.3876 C   0  0  0  0  0  0  0  0  0  0  0  0
   91.5035   45.9444   72.8866 C   0  0  0  0  0  0  0  0  0  0  0  0
   97.0288   49.2262   74.0174 C   0  0  0  0  0  0  0  0  0  0  0  0
   96.6793   46.2580   75.5620 C   0  0  0  0  0  0  0  0  0  0  0  0
   97.3300   46.6298   73.1792 C   0  0  0  0  0  0  0  0  0  0  0  0
   95.1831   47.7238   72.6118 N   0  0  0  0  0  0  0  0  0  0  0  0
   94.8343   50.0568   73.6826 C   0  0  0  0  0  0  0  0  0  0  0  0
  1  8  1  0
  1 16  2  0
  2 20  1  0
  3  9  1  0
  3 12  2  0
  3 24  1  0
  4  9  2  0
  5 16  1  0
  5 18  2  0
  6  8  2  0
  6 11  1  0
  6 19  1  0
  7 13  1  0
  7 20  1  0
  7 30  1  0
  9 14  1  0
 10 11  1  0
 10 25  1  0
 12 27  1  0
 12 28  1  0
 13 26  1  0
 15 28  1  0
 15 29  1  0
 17 27  1  0
 18 19  1  0
 18 21  1  0
 19 25  1  0
 21 29  1  0
 22 26  1  0
 22 29  1  0
 22 30  1  0
 23 24  1  0
 23 28  1  0
M  END
>  <ID>  (1) 
conformer_0

$$$$
