
     RDKit          3D

 29 32  0  0  0  0  0  0  0  0999 V2000
   92.9053   48.5809   70.3470 C   0  0  0  0  0  0  0  0  0  0  0  0
   91.5567   46.5632   71.6792 C   0  0  0  0  0  0  0  0  0  0  0  0
   95.3150   47.1534   73.9012 C   0  0  0  0  0  0  0  0  0  0  0  0
   96.3618   50.9000   72.1879 C   0  0  0  0  0  0  0  0  0  0  0  0
   96.5816   46.7613   76.3333 O   0  0  0  0  0  1  0  0  0  0  0  0
   96.6611   46.4522   73.8521 O   0  0  0  0  0  0  0  0  0  0  0  0
   93.6881   46.4392   73.4295 S   0  0  0  0  0  3  0  0  0  0  0  0
   94.4643   49.7138   72.9393 C   0  0  0  0  0  0  0  0  0  0  0  0
  100.7563   45.1711   75.7679 O   0  0  0  0  0  1  0  0  0  0  0  0
   97.5808   44.6555   75.4718 O   0  0  0  0  0  0  0  0  0  0  0  0
   92.7887   46.9545   72.2049 C   0  0  0  0  0  3  0  0  0  0  0  0
   90.9252   44.3847   72.7740 N   0  0  0  0  0  0  0  0  0  0  0  0
   95.0814   50.3008   71.4889 C   0  0  0  0  0  0  0  0  0  0  0  0
   97.3708   46.1259   75.2323 P   0  0  0  0  0  4  0  0  0  0  0  0
   99.8615   45.0273   73.4180 O   0  0  0  0  0  0  0  0  0  0  0  0
   95.3632   48.3981   72.9679 C   0  0  0  0  0  0  0  0  0  0  0  0
   93.4616   47.9312   71.4575 N   0  0  0  0  0  0  0  0  0  0  0  0
   96.3675   52.3440   71.8065 O   0  0  0  0  0  0  0  0  0  0  0  0
   95.3934   50.9748   73.9110 S   0  0  0  0  0  0  0  0  0  0  0  0
   98.9171   46.7428   75.0366 O   0  0  0  0  0  0  0  0  0  0  0  0
   90.9852   47.3003   70.6490 C   0  0  0  0  0  0  0  0  0  0  0  0
   90.6959   45.4808   71.9728 C   0  0  0  0  0  0  0  0  0  0  0  0
   96.9030   53.1810   72.8332 C   0  0  0  0  0  0  0  0  0  0  0  0
  100.2861   45.9496   74.5209 P   0  0  0  0  0  4  0  0  0  0  0  0
   91.6356   48.2907   69.9080 C   0  0  0  0  0  0  0  0  0  0  0  0
  101.3564   46.8824   74.0085 O   0  0  0  0  0  0  0  0  0  0  0  0
   89.6871   46.8206   70.3806 O   0  0  0  0  0  0  0  0  0  0  0  0
   89.5653   45.5660   71.3010 N   0  0  0  0  0  0  0  0  0  0  0  0
   94.9581   47.8074   71.5883 N   0  0  0  0  0  0  0  0  0  0  0  0
  1 17  1  0
  1 25  1  0
  2 11  1  0
  2 21  2  0
  2 22  1  0
  3  6  1  0
  3  7  1  0
  3 16  1  0
  4 13  1  0
  4 18  1  0
  4 19  1  0
  5 14  2  0
  6 14  1  0
  7 11  2  0
  8 13  1  0
  8 16  1  0
  8 19  1  0
  9 24  2  0
 10 14  1  0
 11 17  1  0
 12 22  2  0
 14 20  1  0
 15 24  1  0
 16 29  1  0
 17 29  1  0
 18 23  1  0
 20 24  1  0
 21 25  1  0
 21 27  1  0
 22 28  1  0
 24 26  1  0
 27 28  1  0
M  END
>  <ID>  (1) 
conformer_0

$$$$
