
     RDKit          3D

 16 15  0  0  0  0  0  0  0  0999 V2000
   93.9709   47.1891   72.3038 C   0  0  0  0  0  0  0  0  0  0  0  0
   95.9975   47.0302   73.7542 C   0  0  0  0  0  0  0  0  0  0  0  0
   94.4754   46.7988   73.6849 C   0  0  0  0  0  0  0  0  0  0  0  0
   98.7385   46.6723   76.4264 O   0  0  0  0  0  1  0  0  0  0  0  0
   97.8894   45.9753   75.3419 P   0  0  0  0  0  4  0  0  0  0  0  0
   98.5798   46.0101   73.9465 O   0  0  0  0  0  0  0  0  0  0  0  0
   89.5487   46.1455   70.4159 O   0  0  0  0  0  0  0  0  0  0  0  0
   91.6368   47.9768   70.6023 C   0  0  0  0  0  0  0  0  0  0  0  0
   96.5125   46.8169   75.1631 O   0  0  0  0  0  0  0  0  0  0  0  0
   91.5446   46.7983   71.5222 C   0  0  0  0  0  0  0  0  0  0  0  0
   90.1767   44.8762   72.1744 O   0  0  0  0  0  0  0  0  0  0  0  0
   96.1922   48.5175   73.3090 C   0  0  0  0  0  0  0  0  0  0  0  0
   97.5100   44.5724   75.7333 O   0  0  0  0  0  0  0  0  0  0  0  0
   95.1372   49.3337   73.9405 O   0  0  0  0  0  0  0  0  0  0  0  0
   92.8813   46.1642   71.8745 C   0  0  0  0  0  0  0  0  0  0  0  0
   90.3634   45.8801   71.3670 C   0  0  0  0  0  0  0  0  0  0  0  0
  1  3  1  0
  1 15  1  0
  2  3  1  0
  2  9  1  0
  2 12  1  0
  4  5  2  0
  5  6  1  0
  5  9  1  0
  5 13  1  0
  7 16  2  0
  8 10  1  0
 10 15  1  0
 10 16  1  0
 11 16  1  0
 12 14  1  0
M  END
>  <ID>  (1) 
conformer_0

$$$$
