
     RDKit          3D

 23 24  0  0  0  0  0  0  0  0999 V2000
   93.4183   48.3457   72.4711 N   0  0  0  0  0  0  0  0  0  0  0  0
   98.9670   45.3895   74.9540 P   0  0  0  0  0  4  0  0  0  0  0  0
   89.6625   45.8712   71.1988 N   0  0  0  0  0  0  0  0  0  0  0  0
   92.9881   51.4729   70.7202 O   0  0  0  0  0  0  0  0  0  0  0  0
   90.9705   47.6254   71.0635 N   0  0  0  0  0  0  0  0  0  0  0  0
   95.2540   49.9485   73.2475 C   0  0  0  0  0  0  0  0  0  0  0  0
   94.8423   48.6415   72.4004 C   0  0  0  0  0  0  0  0  0  0  0  0
   92.6431   49.4569   71.9259 N   0  0  0  0  0  0  0  0  0  0  0  0
   96.2020   46.7821   76.1143 O   0  0  0  0  0  1  0  0  0  0  0  0
   92.8155   47.0293   72.6294 C   0  0  0  0  0  0  0  0  0  0  0  0
   93.3262   50.6500   71.6329 C   0  0  0  0  0  0  0  0  0  0  0  0
   97.6872   46.0974   74.2023 N   0  0  0  0  0  0  0  0  0  0  0  0
   99.4193   44.1379   74.2459 O   0  0  0  0  0  1  0  0  0  0  0  0
   91.5503   46.8061   71.9478 C   0  0  0  0  0  0  0  0  0  0  0  0
  100.0248   46.5003   74.9101 O   0  0  0  0  0  0  0  0  0  0  0  0
   96.4311   46.4614   74.8296 P   0  0  0  0  0  4  0  0  0  0  0  0
   95.3273   46.5749   73.8066 C   0  0  0  0  0  0  0  0  0  0  0  0
   89.8747   47.1289   70.6154 N   0  0  0  0  0  0  0  0  0  0  0  0
   98.5744   45.0675   76.4040 O   0  0  0  0  0  0  0  0  0  0  0  0
   90.6883   45.6804   72.0121 C   0  0  0  0  0  0  0  0  0  0  0  0
   94.2840   51.1105   72.6920 C   0  0  0  0  0  0  0  0  0  0  0  0
   95.7699   47.4523   72.5974 C   0  0  0  0  0  0  0  0  0  0  0  0
   90.8268   44.4933   72.7686 N   0  0  0  0  0  0  0  0  0  0  0  0
  1  7  1  0
  1  8  1  0
  1 10  1  0
  2 12  1  0
  2 13  2  0
  2 15  1  0
  2 19  1  0
  3 18  1  0
  3 20  1  0
  4 11  2  0
  5 14  1  0
  5 18  1  0
  6  7  1  0
  6 21  1  0
  7 22  1  0
  8 11  1  0
  9 16  2  0
 10 14  2  3
 11 21  1  0
 12 16  1  0
 14 20  1  0
 16 17  1  0
 17 22  1  0
 20 23  2  0
M  END
>  <ID>  (1) 
conformer_0

$$$$
