
     RDKit          3D

 28 28  0  0  0  0  0  0  0  0999 V2000
   96.0445   48.0069   74.9760 C   0  0  0  0  0  0  0  0  0  0  0  0
   95.2942   49.9464   72.1762 C   0  0  0  0  0  0  0  0  0  0  0  0
   93.7997   49.5227   69.9329 C   0  0  0  0  0  0  0  0  0  0  0  0
   94.8445   48.5052   71.8824 C   0  0  0  0  0  0  0  0  0  0  0  0
   89.5441   46.4606   69.3685 O   0  0  0  0  0  0  0  0  0  0  0  0
   98.7134   45.9486   75.6489 P   0  0  0  0  0  4  0  0  0  0  0  0
   97.4164   45.1346   75.8631 O   0  0  0  0  0  1  0  0  0  0  0  0
   89.8382   45.9635   71.6044 C   0  0  0  0  0  0  0  0  0  0  0  0
   95.5007   49.3819   74.6011 C   0  0  0  0  0  0  0  0  0  0  0  0
   91.4663   47.5180   70.4146 C   0  0  0  0  0  0  0  0  0  0  0  0
   97.6339   49.8948   72.8186 O   0  0  0  0  0  0  0  0  0  0  0  0
   98.4063   47.3144   74.8016 O   0  0  0  0  0  0  0  0  0  0  0  0
   97.0223   46.6624   72.8393 C   0  0  0  0  0  0  0  0  0  0  0  0
   91.1791   44.9817   74.8067 O   0  0  0  0  0  0  0  0  0  0  0  0
   91.3072   48.5446   69.3254 C   0  0  0  0  0  0  0  0  0  0  0  0
   90.9502   45.9279   72.6725 C   0  0  0  0  0  0  0  0  0  0  0  0
   99.6828   45.1348   74.7240 O   0  0  0  0  0  0  0  0  0  0  0  0
   93.9260   48.3471   70.7312 C   0  0  0  0  0  0  0  0  0  0  0  0
   90.2879   46.6248   70.3831 C   0  0  0  0  0  0  0  0  0  0  0  0
   92.4323   45.5621   72.5181 C   0  0  0  0  0  0  0  0  0  0  0  0
   89.6668   44.0638   73.4319 N   0  0  0  0  0  0  0  0  0  0  0  0
   93.5855   45.9626   71.4852 C   0  0  0  0  0  0  0  0  0  0  0  0
   90.5149   44.9812   73.7774 C   0  0  0  0  0  0  0  0  0  0  0  0
   99.3760   46.3228   76.9906 O   0  0  0  0  0  0  0  0  0  0  0  0
   96.3021   49.9903   73.3869 C   0  0  0  0  0  0  0  0  0  0  0  0
   97.1827   47.5403   74.0829 C   0  0  0  0  0  0  0  0  0  0  0  0
   92.9799   47.2232   70.6350 C   0  0  0  0  0  0  0  0  0  0  0  0
   95.2466   51.2541   71.6936 O   0  0  0  0  0  0  0  0  0  0  0  0
  1  9  1  0
  1 26  1  0
  2  4  2  3
  2 25  1  0
  2 28  1  0
  3 18  1  0
  4 18  1  0
  5 19  2  0
  6  7  2  0
  6 12  1  0
  6 17  1  0
  6 24  1  0
  8 16  1  0
  8 19  1  0
  9 25  1  0
 10 15  1  0
 10 19  1  0
 10 27  1  0
 11 25  1  0
 12 26  1  0
 13 26  1  0
 14 23  2  0
 16 20  1  0
 16 23  1  0
 18 27  1  0
 20 22  1  0
 21 23  1  0
 22 27  1  0
M  END
>  <ID>  (1) 
conformer_0

$$$$
