
     RDKit          3D

 26 28  0  0  0  0  0  0  0  0999 V2000
   95.7483   46.4683   73.1890 O   0  0  0  0  0  0  0  0  0  0  0  0
   93.0248   46.6431   72.5239 C   0  0  0  0  0  0  0  0  0  0  0  0
   97.1067   48.5229   74.0862 C   0  0  0  0  0  0  0  0  0  0  0  0
   89.6122   45.4095   71.7659 N   0  0  0  0  0  0  0  0  0  0  0  0
   89.9000   46.5461   70.9447 N   0  0  0  0  0  0  0  0  0  0  0  0
   95.6262   48.7285   72.0951 C   0  0  0  0  0  0  0  0  0  0  0  0
   90.6604   45.1451   72.4948 C   0  0  0  0  0  0  0  0  0  0  0  0
   93.1886   47.7534   71.7361 C   0  0  0  0  0  0  0  0  0  0  0  0
   98.2355   46.1708   75.6097 P   0  0  0  0  0  4  0  0  0  0  0  0
   90.7759   44.0871   73.3775 N   0  0  0  0  0  0  0  0  0  0  0  0
   91.7362   46.1151   72.2708 C   0  0  0  0  0  0  0  0  0  0  0  0
   92.0664   47.9396   71.0217 N   0  0  0  0  0  0  0  0  0  0  0  0
   97.3528   44.9032   75.7453 O   0  0  0  0  0  1  0  0  0  0  0  0
   97.1204   47.6495   75.4585 C   0  0  0  0  0  0  0  0  0  0  0  0
   94.3631   48.5646   71.4156 N   0  0  0  0  0  0  0  0  0  0  0  0
   96.5226   50.0057   73.8895 O   0  0  0  0  0  0  0  0  0  0  0  0
   93.5152   51.0800   71.2311 C   0  0  0  0  0  0  0  0  0  0  0  0
   98.5450   48.9037   73.7975 O   0  0  0  0  0  0  0  0  0  0  0  0
   99.1176   46.3326   76.8755 O   0  0  0  0  0  0  0  0  0  0  0  0
   99.1364   46.0856   74.3210 O   0  0  0  0  0  0  0  0  0  0  0  0
   95.7846   50.1542   72.6031 C   0  0  0  0  0  0  0  0  0  0  0  0
   95.8916   47.8256   73.2900 C   0  0  0  0  0  0  0  0  0  0  0  0
   95.9265   47.3431   76.0706 O   0  0  0  0  0  0  0  0  0  0  0  0
   94.4645   50.8773   72.3600 C   0  0  0  0  0  0  0  0  0  0  0  0
   93.0639   50.4157   70.0272 O   0  0  0  0  0  0  0  0  0  0  0  0
   91.1629   46.9861   71.2821 C   0  0  0  0  0  0  0  0  0  0  0  0
  1 22  1  0
  2  8  1  0
  2 11  1  0
  3 14  1  0
  3 16  1  0
  3 18  1  0
  3 22  1  0
  4  5  1  0
  4  7  1  0
  5 26  1  0
  6 15  1  0
  6 21  1  0
  6 22  1  0
  7 10  2  0
  7 11  1  0
  8 12  2  0
  8 15  1  0
  9 13  2  0
  9 14  1  0
  9 19  1  0
  9 20  1  0
 11 26  2  0
 12 26  1  0
 14 23  1  0
 16 21  1  0
 17 24  1  0
 17 25  1  0
 21 24  1  0
M  END
>  <ID>  (1) 
conformer_0

$$$$
