
     RDKit          3D

 24 26  0  0  0  0  0  0  0  0999 V2000
   96.1193   47.4189   76.1209 O   0  0  0  0  0  0  0  0  0  0  0  0
   98.1950   45.3357   75.1512 C   0  0  0  0  0  0  0  0  0  0  0  0
   91.7227   47.0785   71.1768 C   0  0  0  0  0  0  0  0  0  0  0  0
   97.2401   44.8739   75.8909 O   0  0  0  0  0  0  0  0  0  0  0  0
   96.9582   48.8875   74.3745 C   0  0  0  0  0  0  0  0  0  0  0  0
   89.6668   45.8451   70.8968 O   0  0  0  0  0  0  0  0  0  0  0  0
   93.8624   50.2527   72.4186 C   0  0  0  0  0  0  0  0  0  0  0  0
   95.3333   47.7877   72.4958 C   0  0  0  0  0  0  0  0  0  0  0  0
   93.9970   47.8303   71.8276 C   0  0  0  0  0  0  0  0  0  0  0  0
   94.8777   50.0476   73.5165 C   0  0  0  0  0  0  0  0  0  0  0  0
   95.9572   49.0037   73.2286 C   0  0  0  0  0  0  0  0  0  0  0  0
   97.0710   47.6421   75.1940 C   0  0  0  0  0  0  0  0  0  0  0  0
   93.7924   51.5363   71.6553 C   0  0  0  0  0  0  0  0  0  0  0  0
   91.4489   45.3440   72.4818 N   0  0  0  0  0  0  0  0  0  0  0  0
   92.7529   49.8267   70.4833 O   0  0  0  0  0  0  0  0  0  0  0  0
   90.8536   46.0927   71.4728 C   0  0  0  0  0  0  0  0  0  0  0  0
   92.8619   46.9342   71.9376 C   0  0  0  0  0  0  0  0  0  0  0  0
   99.0566   44.5245   74.6882 O   0  0  0  0  0  0  0  0  0  0  0  0
   90.8631   44.2291   73.1522 C   0  0  0  0  0  0  0  0  0  0  0  0
   98.2783   46.7981   74.9880 C   0  0  0  0  0  0  0  0  0  0  0  0
   92.5597   51.2528   70.8409 C   0  0  0  0  0  0  0  0  0  0  0  0
   97.1446   50.1680   75.0310 N   0  0  0  0  0  0  0  0  0  0  0  0
   93.5109   49.1972   71.4893 C   0  0  0  0  0  0  0  0  0  0  0  0
   92.7106   45.8645   72.7713 N   0  0  0  0  0  0  0  0  0  0  0  0
  1 12  1  0
  2  4  2  0
  2 18  1  0
  2 20  1  0
  3 16  1  0
  3 17  1  0
  5 11  1  0
  5 12  1  0
  5 22  1  0
  6 16  2  0
  7 10  1  0
  7 13  1  0
  7 23  1  0
  8  9  1  0
  8 11  1  0
  9 17  1  0
  9 23  1  0
 10 11  1  0
 12 20  1  0
 13 21  1  0
 14 16  1  0
 14 19  1  0
 14 24  1  0
 15 21  1  0
 15 23  1  0
 17 24  1  0
M  END
>  <ID>  (1) 
conformer_0

$$$$
