
     RDKit          3D

 29 29  0  0  0  0  0  0  0  0999 V2000
   91.7652   45.9306   71.6094 C   0  0  0  0  0  0  0  0  0  0  0  0
  100.6945   43.9035   74.8012 O   0  0  0  0  0  1  0  0  0  0  0  0
   96.1311   46.4763   73.4697 C   0  0  0  0  0  0  0  0  0  0  0  0
   92.4195   50.0826   71.8812 N   0  0  0  0  0  0  0  0  0  0  0  0
   99.3058   48.7497   76.2910 O   0  0  0  0  0  1  0  0  0  0  0  0
   98.8263   50.7062   74.7672 O   0  0  0  0  0  0  0  0  0  0  0  0
   95.0152   47.1258   71.4458 O   0  0  0  0  0  0  0  0  0  0  0  0
   98.2187   49.3951   75.4904 P   0  0  0  0  0  4  0  0  0  0  0  0
   89.3396   45.7140   71.5412 O   0  0  0  0  0  0  0  0  0  0  0  0
  101.0857   46.1848   73.8972 O   0  0  0  0  0  0  0  0  0  0  0  0
   97.6066   48.3991   74.3959 O   0  0  0  0  0  0  0  0  0  0  0  0
  101.1144   45.9958   76.4161 O   0  0  0  0  0  0  0  0  0  0  0  0
   93.6779   47.4492   71.7008 C   0  0  0  0  0  0  0  0  0  0  0  0
   95.9848   47.5825   72.4015 C   0  0  0  0  0  0  0  0  0  0  0  0
   98.3354   46.1285   74.0802 C   0  0  0  0  0  0  0  0  0  0  0  0
  100.5806   45.3837   75.0962 P   0  0  0  0  0  4  0  0  0  0  0  0
   97.1068   47.0034   74.6151 C   0  0  0  0  0  0  0  0  0  0  0  0
   93.1697   46.2773   73.6898 O   0  0  0  0  0  0  0  0  0  0  0  0
   92.6484   49.4670   70.4014 S   0  0  0  0  0  4  0  0  0  0  0  0
   98.9597   45.5616   75.1777 O   0  0  0  0  0  0  0  0  0  0  0  0
   92.8206   47.6358   70.3519 C   0  0  0  0  0  0  0  0  0  0  0  0
   90.5232   44.1660   72.9230 C   0  0  0  0  0  0  0  0  0  0  0  0
   90.4784   45.3509   72.0881 C   0  0  0  0  0  0  0  0  0  0  0  0
   96.9438   49.8716   76.3314 O   0  0  0  0  0  0  0  0  0  0  0  0
   91.5089   49.6948   69.6233 O   0  0  0  0  0  1  0  0  0  0  0  0
   92.9664   46.3626   72.4149 C   0  0  0  0  0  0  0  0  0  0  0  0
   96.3075   46.8907   75.8705 O   0  0  0  0  0  0  0  0  0  0  0  0
   93.9781   49.7653   69.9510 O   0  0  0  0  0  1  0  0  0  0  0  0
   91.5175   46.9892   70.6434 O   0  0  0  0  0  0  0  0  0  0  0  0
  1 23  1  0
  1 26  1  0
  1 29  1  0
  2 16  2  0
  3 14  1  0
  3 17  1  0
  4 19  1  0
  5  8  2  0
  6  8  1  0
  7 13  1  0
  7 14  1  0
  8 11  1  0
  8 24  1  0
  9 23  1  0
 10 16  1  0
 11 17  1  0
 12 16  1  0
 13 21  1  0
 13 26  1  0
 15 17  1  0
 15 20  1  0
 16 20  1  0
 17 27  1  0
 18 26  1  0
 19 21  1  0
 19 25  1  0
 19 28  1  0
 21 29  1  0
 22 23  1  0
M  END
>  <ID>  (1) 
conformer_0

$$$$
