
     RDKit          3D

 31 32  0  0  0  0  0  0  0  0999 V2000
   97.6919   49.5546   73.1875 C   0  0  0  0  0  0  0  0  0  0  0  0
   94.5985   48.1427   71.7618 C   0  0  0  0  0  0  0  0  0  0  0  0
   92.8258   47.9773   70.1706 C   0  0  0  0  0  0  0  0  0  0  0  0
   89.4667   44.7327   73.3761 C   0  0  0  0  0  0  0  0  0  0  0  0
   91.9364   47.0876   69.3591 C   0  0  0  0  0  0  0  0  0  0  0  0
   96.5618   52.8801   73.5415 C   0  0  0  0  0  0  0  0  0  0  0  0
   92.6860   46.5151   72.4863 C   0  0  0  0  0  0  0  0  0  0  0  0
   99.5896   46.0939   76.7303 O   0  0  0  0  0  1  0  0  0  0  0  0
   97.8114   44.3921   76.0675 O   0  0  0  0  0  0  0  0  0  0  0  0
   95.3561   50.7913   72.5195 C   0  0  0  0  0  0  0  0  0  0  0  0
   97.5714   50.8055   73.9526 O   0  0  0  0  0  0  0  0  0  0  0  0
   96.3556   51.4137   73.2805 N   0  0  0  0  0  0  0  0  0  0  0  0
   93.6313   48.6990   69.4159 O   0  0  0  0  0  0  0  0  0  0  0  0
   96.8846   46.8554   74.7381 C   0  0  0  0  0  0  0  0  0  0  0  0
   90.4504   47.4110   69.6290 C   0  0  0  0  0  0  0  0  0  0  0  0
   95.2085   49.2897   72.5489 C   0  0  0  0  0  0  0  0  0  0  0  0
   98.2249   46.3938   74.5378 O   0  0  0  0  0  0  0  0  0  0  0  0
   96.4542   48.8547   73.2640 O   0  0  0  0  0  0  0  0  0  0  0  0
   96.3219   48.2299   74.5704 C   0  0  0  0  0  0  0  0  0  0  0  0
   98.9519   45.2721   75.5801 P   0  0  0  0  0  4  0  0  0  0  0  0
   90.1841   47.2398   71.0997 C   0  0  0  0  0  0  0  0  0  0  0  0
   90.9012   44.3264   73.2195 C   0  0  0  0  0  0  0  0  0  0  0  0
   93.2239   47.6129   71.5624 N   0  0  0  0  0  0  0  0  0  0  0  0
   94.8325   51.3929   71.4466 O   0  0  0  0  0  0  0  0  0  0  0  0
   95.5526   47.1113   71.6475 O   0  0  0  0  0  0  0  0  0  0  0  0
   99.9343   44.3472   74.8386 O   0  0  0  0  0  0  0  0  0  0  0  0
   93.2696   46.4216   73.5908 O   0  0  0  0  0  0  0  0  0  0  0  0
   91.5155   45.4734   72.3776 C   0  0  0  0  0  0  0  0  0  0  0  0
   89.1804   45.3929   72.1696 N   0  0  0  0  0  0  0  0  0  0  0  0
   95.9662   46.1383   75.5341 O   0  0  0  0  0  0  0  0  0  0  0  0
   90.3376   45.8694   71.5606 C   0  0  0  0  0  0  0  0  0  0  0  0
  1 11  1  0
  1 18  1  0
  2 16  1  0
  2 23  1  0
  2 25  2  0
  3  5  1  0
  3 13  2  0
  3 23  1  0
  4 22  1  0
  4 29  1  0
  5 15  1  0
  6 12  1  0
  7 23  1  0
  7 27  2  0
  7 28  1  0
  8 20  2  0
  9 20  1  0
 10 12  1  0
 10 16  1  0
 10 24  2  0
 11 12  1  0
 14 17  1  0
 14 19  1  0
 14 30  2  0
 15 21  1  0
 17 20  1  0
 18 19  1  0
 20 26  1  0
 21 31  1  0
 22 28  1  0
 28 31  1  0
 29 31  1  0
M  END
>  <ID>  (1) 
conformer_0

$$$$
