
     RDKit          3D

 21 21  0  0  0  0  0  0  0  0999 V2000
   98.4855   46.2493   74.3276 C   0  0  0  0  0  0  0  0  0  0  0  0
   91.5129   45.5421   71.4340 C   0  0  0  0  0  0  0  0  0  0  0  0
   97.5175   44.7722   75.9826 O   0  0  0  0  0  0  0  0  0  0  0  0
   89.2239   46.1734   71.5596 O   0  0  0  0  0  0  0  0  0  0  0  0
   95.0841   49.0636   73.1659 C   0  0  0  0  0  0  0  0  0  0  0  0
   96.4030   50.7182   72.1273 C   0  0  0  0  0  0  0  0  0  0  0  0
   98.4350   44.9308   75.1172 C   0  0  0  0  0  0  0  0  0  0  0  0
   99.3045   44.0793   74.9094 O   0  0  0  0  0  0  0  0  0  0  0  0
   91.0807   44.3487   72.1265 N   0  0  0  0  0  0  0  0  0  0  0  0
   93.7470   46.8977   72.9408 C   0  0  0  0  0  0  0  0  0  0  0  0
   95.3646   50.1583   74.2189 C   0  0  0  0  0  0  0  0  0  0  0  0
   95.9082   49.3485   72.0456 O   0  0  0  0  0  0  0  0  0  0  0  0
   90.5538   47.5032   70.2401 N   0  0  0  0  0  0  0  0  0  0  0  0
   95.5757   51.3545   73.2377 C   0  0  0  0  0  0  0  0  0  0  0  0
   94.9680   47.5983   73.4068 C   0  0  0  0  0  0  0  0  0  0  0  0
   92.7099   46.1156   72.0915 C   0  0  0  0  0  0  0  0  0  0  0  0
   95.8467   47.0943   75.5939 S   0  0  0  0  0  0  0  0  0  0  0  0
   96.5971   50.0349   74.9208 O   0  0  0  0  0  0  0  0  0  0  0  0
   95.9751   46.9060   74.2104 C   0  0  0  0  0  0  0  0  0  0  0  0
   90.3535   46.4313   71.0815 C   0  0  0  0  0  0  0  0  0  0  0  0
   97.2192   46.4944   73.5530 C   0  0  0  0  0  0  0  0  0  0  0  0
  1  7  1  0
  1 21  1  0
  2  9  1  0
  2 16  1  0
  2 20  1  0
  3  7  2  0
  4 20  2  0
  5 11  1  0
  5 12  1  0
  5 15  1  0
  6 12  1  0
  6 14  1  0
  7  8  1  0
 10 15  1  0
 10 16  3  0
 11 14  1  0
 11 18  1  0
 13 20  1  0
 15 19  1  0
 17 19  2  0
 19 21  1  0
M  END
>  <ID>  (1) 
conformer_0

$$$$
