
     RDKit          3D

 24 26  0  0  0  0  0  0  0  0999 V2000
   90.6929   44.0479   72.7471 N   0  0  0  0  0  0  0  0  0  0  0  0
   90.1705   45.6884   71.0945 N   0  0  0  0  0  0  0  0  0  0  0  0
   95.7532   51.5502   74.3281 C   0  0  0  0  0  0  0  0  0  0  0  0
   95.8875   46.5533   74.4599 N   0  0  0  0  0  0  0  0  0  0  0  0
   91.0318   45.2211   72.0307 C   0  0  0  0  0  0  0  0  0  0  0  0
   94.9004   46.6668   72.2578 C   0  0  0  0  0  0  0  0  0  0  0  0
   99.0001   47.3431   76.2326 O   0  0  0  0  0  1  0  0  0  0  0  0
   98.6631   46.0243   73.8483 C   0  0  0  0  0  0  0  0  0  0  0  0
   95.1983   51.0594   72.9948 C   0  0  0  0  0  0  0  0  0  0  0  0
   96.2094   49.7467   73.0540 C   0  0  0  0  0  0  0  0  0  0  0  0
   98.2087   46.1590   75.6087 P   0  0  0  0  0  4  0  0  0  0  0  0
   95.2620   48.7276   73.4454 N   0  0  0  0  0  0  0  0  0  0  0  0
   91.7923   47.3959   70.5334 C   0  0  0  0  0  0  0  0  0  0  0  0
   93.9168   48.6112   70.4195 C   0  0  0  0  0  0  0  0  0  0  0  0
   89.6454   47.2968   69.5001 N   0  0  0  0  0  0  0  0  0  0  0  0
   92.2071   45.7757   72.2736 N   0  0  0  0  0  0  0  0  0  0  0  0
   90.5133   46.7832   70.3822 C   0  0  0  0  0  0  0  0  0  0  0  0
   93.9273   47.5886   71.5519 C   0  0  0  0  0  0  0  0  0  0  0  0
   95.4061   47.3610   73.5110 C   0  0  0  0  0  0  0  0  0  0  0  0
   92.6079   46.8663   71.5248 C   0  0  0  0  0  0  0  0  0  0  0  0
   96.7437   50.3695   74.4020 C   0  0  0  0  0  0  0  0  0  0  0  0
   92.4934   48.4937   69.7266 C   0  0  0  0  0  0  0  0  0  0  0  0
   98.3049   44.7305   76.1860 O   0  0  0  0  0  0  0  0  0  0  0  0
   96.4720   46.6803   75.7648 C   0  0  0  0  0  0  0  0  0  0  0  0
  1  5  2  0
  2  5  1  0
  2 17  1  0
  3  9  1  0
  3 21  1  0
  4 19  2  3
  4 24  1  0
  5 16  1  0
  6 18  1  0
  6 19  1  0
  7 11  2  0
  8 11  1  0
  9 10  1  0
 10 12  1  0
 10 21  1  0
 11 23  1  0
 11 24  1  0
 12 19  1  0
 13 17  1  0
 13 20  1  0
 13 22  1  0
 14 18  1  0
 14 22  1  0
 15 17  2  0
 16 20  2  0
 18 20  1  0
M  END
>  <ID>  (1) 
conformer_0

$$$$
