
     RDKit          3D

 19 19  0  0  0  0  0  0  0  0999 V2000
   96.3355   45.4408   74.8633 O   0  0  0  0  0  1  0  0  0  0  0  0
   95.2387   49.1376   73.9494 C   0  0  0  0  0  0  0  0  0  0  0  0
   91.6029   46.2653   72.6844 N   0  0  0  0  0  0  0  0  0  0  0  0
   95.8325   48.5157   75.1958 C   0  0  0  0  0  0  0  0  0  0  0  0
   93.6463   48.8572   71.8293 C   0  0  0  0  0  0  0  0  0  0  0  0
   89.9775   45.9563   70.9283 N   0  0  0  0  0  0  0  0  0  0  0  0
   90.0388   44.5468   72.6600 N   0  0  0  0  0  0  0  0  0  0  0  0
   97.5121   46.2919   75.1965 P   0  0  0  0  0  4  0  0  0  0  0  0
   94.2611   48.3231   73.1396 C   0  0  0  0  0  0  0  0  0  0  0  0
   92.9928   50.0795   70.9897 C   0  0  0  0  0  0  0  0  0  0  0  0
   97.0842   47.8835   75.1289 O   0  0  0  0  0  0  0  0  0  0  0  0
   98.1362   46.0244   76.5549 O   0  0  0  0  0  0  0  0  0  0  0  0
   92.8733   46.6118   72.2841 C   0  0  0  0  0  0  0  0  0  0  0  0
   92.4988   47.6137   70.0706 O   0  0  0  0  0  0  0  0  0  0  0  0
   90.5948   45.6220   72.0704 C   0  0  0  0  0  0  0  0  0  0  0  0
   98.6208   46.2160   74.0919 O   0  0  0  0  0  0  0  0  0  0  0  0
   92.9368   47.6639   71.2947 C   0  0  0  0  0  0  0  0  0  0  0  0
   93.5847   51.3967   71.5602 C   0  0  0  0  0  0  0  0  0  0  0  0
   94.0109   46.8363   73.1940 C   0  0  0  0  0  0  0  0  0  0  0  0
  1  8  2  0
  2  4  1  0
  2  9  1  0
  3 13  1  0
  3 15  2  3
  4 11  1  0
  5  9  1  0
  5 10  1  0
  5 17  1  0
  6 15  1  0
  7 15  1  0
  8 11  1  0
  8 12  1  0
  8 16  1  0
  9 19  1  0
 10 18  1  0
 13 17  1  0
 13 19  1  0
 14 17  1  0
M  END
>  <ID>  (1) 
conformer_0

$$$$
