
     RDKit          3D

 25 24  0  0  0  0  0  0  0  0999 V2000
   92.1327   46.9397   70.8601 C   0  0  0  0  0  0  0  0  0  0  0  0
   91.1822   46.4160   71.9593 C   0  0  0  0  0  0  0  0  0  0  0  0
   93.4561   46.3655   73.7033 O   0  0  0  0  0  0  0  0  0  0  0  0
   93.9880   47.2603   72.7917 C   0  0  0  0  0  0  0  0  0  0  0  0
   97.6341   44.8834   75.5855 O   0  0  0  0  0  0  0  0  0  0  0  0
   95.1227   48.1264   73.3488 C   0  0  0  0  0  0  0  0  0  0  0  0
   98.3253   46.8586   74.2981 N   0  0  0  0  0  0  0  0  0  0  0  0
   92.8626   49.2989   71.6318 S   0  0  0  0  0  0  0  0  0  0  0  0
   89.4230   46.1583   70.3429 O   0  0  0  0  0  0  0  0  0  0  0  0
   96.6597   52.3636   73.2536 C   0  0  0  0  0  0  0  0  0  0  0  0
   89.2867   45.0236   72.2878 O   0  0  0  0  0  0  0  0  0  0  0  0
   98.4850   45.5693   74.8750 C   0  0  0  0  0  0  0  0  0  0  0  0
   99.9930   43.8175   74.7610 O   0  0  0  0  0  0  0  0  0  0  0  0
   95.9890   47.1282   74.1409 C   0  0  0  0  0  0  0  0  0  0  0  0
   97.2085   46.8572   73.3405 C   0  0  0  0  0  0  0  0  0  0  0  0
   95.5060   50.7459   74.7166 C   0  0  0  0  0  0  0  0  0  0  0  0
   95.9957   48.8189   72.4130 O   0  0  0  0  0  0  0  0  0  0  0  0
   92.0181   47.5928   69.3920 C   0  0  0  0  0  0  0  0  0  0  0  0
   96.0073   50.2207   72.1393 C   0  0  0  0  0  0  0  0  0  0  0  0
   99.7665   45.0148   74.4043 C   0  0  0  0  0  0  0  0  0  0  0  0
   95.6920   47.0742   75.4614 O   0  0  0  0  0  0  0  0  0  0  0  0
   89.9004   45.8381   71.4803 C   0  0  0  0  0  0  0  0  0  0  0  0
   93.2828   47.7422   71.5717 C   0  0  0  0  0  0  0  0  0  0  0  0
   95.6843   51.1848   73.2164 C   0  0  0  0  0  0  0  0  0  0  0  0
  100.4260   45.7815   73.4056 C   0  0  0  0  0  0  0  0  0  0  0  0
  1  2  1  0
  1 18  1  0
  1 23  1  0
  2 22  1  0
  3  4  1  0
  4  6  1  0
  4 23  1  0
  5 12  2  0
  6 14  1  0
  6 17  1  0
  7 12  1  0
  7 15  1  0
  8 23  2  0
  9 22  2  0
 10 24  1  0
 11 22  1  0
 12 20  1  0
 13 20  2  0
 14 15  1  0
 14 21  1  0
 16 24  1  0
 17 19  1  0
 19 24  1  0
 20 25  1  0
M  END
>  <ID>  (1) 
conformer_0

$$$$
