
     RDKit          3D

 33 34  0  0  0  0  0  0  0  0999 V2000
   96.8538   47.3764   73.6656 C   0  0  0  0  0  0  0  0  0  0  0  0
   96.4912   49.9985   73.5290 C   0  0  0  0  0  0  0  0  0  0  0  0
   90.7822   47.3344   70.2528 C   0  0  0  0  0  0  0  0  0  0  0  0
   97.1182   46.3621   75.3058 P   0  0  0  0  0  4  0  0  0  0  0  0
   96.4675   47.2786   76.2464 O   0  0  0  0  0  1  0  0  0  0  0  0
   99.1951   46.4788   73.6850 C   0  0  0  0  0  0  0  0  0  0  0  0
  101.0632   45.7764   76.0620 O   0  0  0  0  0  1  0  0  0  0  0  0
   92.2293   45.6719   73.1995 O   0  0  0  0  0  0  0  0  0  0  0  0
   90.2103   45.4131   72.1138 C   0  0  0  0  0  0  0  0  0  0  0  0
   91.4527   46.1482   72.2227 C   0  0  0  0  0  0  0  0  0  0  0  0
   91.0558   48.2055   69.0659 C   0  0  0  0  0  0  0  0  0  0  0  0
   95.5888   50.5576   74.4523 O   0  0  0  0  0  0  0  0  0  0  0  0
   93.2408   50.2575   71.4553 C   0  0  0  0  0  0  0  0  0  0  0  0
   89.6184   46.6439   70.2696 N   0  0  0  0  0  0  0  0  0  0  0  0
   89.3726   45.7380   71.1601 N   0  0  0  0  0  0  0  0  0  0  0  0
   98.8585   46.2821   75.1810 O   0  0  0  0  0  0  0  0  0  0  0  0
   94.1952   47.0907   73.5105 O   0  0  0  0  0  0  0  0  0  0  0  0
   94.0687   47.6236   72.2678 C   0  0  0  0  0  0  0  0  0  0  0  0
   98.3775   47.7618   73.3808 S   0  0  0  0  0  0  0  0  0  0  0  0
   89.9698   44.3574   73.0073 N   0  0  0  0  0  0  0  0  0  0  0  0
   95.0303   48.7125   72.1376 O   0  0  0  0  0  0  0  0  0  0  0  0
   94.1874   49.9001   72.5720 C   0  0  0  0  0  0  0  0  0  0  0  0
   99.7481   44.0279   75.0983 O   0  0  0  0  0  1  0  0  0  0  0  0
   99.9611   45.2438   75.6315 P   0  0  0  0  0  0  0  0  0  0  0  0
   96.8250   44.8860   75.5951 O   0  0  0  0  0  0  0  0  0  0  0  0
   92.9731   47.8655   71.3469 C   0  0  0  0  0  0  0  0  0  0  0  0
   93.2844   49.0537   70.5018 C   0  0  0  0  0  0  0  0  0  0  0  0
   91.9183   50.3449   71.8320 O   0  0  0  0  0  0  0  0  0  0  0  0
   96.1516   48.6126   73.0700 C   0  0  0  0  0  0  0  0  0  0  0  0
   97.6858   50.5547   73.2582 O   0  0  0  0  0  0  0  0  0  0  0  0
   93.6754   51.4658   70.9406 O   0  0  0  0  0  0  0  0  0  0  0  0
   95.3096   50.9083   72.9949 C   0  0  0  0  0  0  0  0  0  0  0  0
   91.7208   47.1567   71.3031 C   0  0  0  0  0  0  0  0  0  0  0  0
  1  4  1  0
  1 19  1  0
  1 29  1  0
  2 12  1  0
  2 29  1  0
  2 30  1  0
  2 32  1  0
  3 11  1  0
  3 14  2  0
  3 33  1  0
  4  5  2  0
  4 16  1  0
  4 25  1  0
  6 19  1  0
  7 24  1  0
  8 10  1  0
  9 10  1  0
  9 15  1  0
  9 20  2  0
 10 33  2  0
 13 22  1  0
 13 27  1  0
 13 28  1  0
 13 31  1  0
 14 15  1  0
 16 24  1  0
 17 18  2  0
 18 21  1  0
 18 26  1  0
 21 29  1  0
 22 32  1  0
 23 24  1  0
 26 27  1  0
 26 33  1  0
M  END
>  <ID>  (1) 
conformer_0

$$$$
