
     RDKit          3D

 22 24  0  0  0  0  0  0  0  0999 V2000
   95.2958   47.0265   73.2299 C   0  0  0  0  0  0  0  0  0  0  0  0
   97.0185   46.4289   75.2724 C   0  0  0  0  0  0  0  0  0  0  0  0
   93.6023   50.9167   72.3363 C   0  0  0  0  0  0  0  0  0  0  0  0
   90.6568   43.9321   72.8201 O   0  0  0  0  0  0  0  0  0  0  0  0
   90.0349   45.8043   71.4615 C   0  0  0  0  0  0  0  0  0  0  0  0
   92.6828   46.7866   71.8376 C   0  0  0  0  0  0  0  0  0  0  0  0
   96.1701   46.9801   76.2392 O   0  0  0  0  0  0  0  0  0  0  0  0
   96.1304   48.3688   73.3904 C   0  0  0  0  0  0  0  0  0  0  0  0
   99.0504   46.7943   73.4932 C   0  0  0  0  0  0  0  0  0  0  0  0
   92.6708   50.9183   71.1481 C   0  0  0  0  0  0  0  0  0  0  0  0
   92.2657   45.6059   72.4031 C   0  0  0  0  0  0  0  0  0  0  0  0
   98.1908   47.4625   74.6770 C   0  0  0  0  0  0  0  0  0  0  0  0
   97.8503   45.2566   75.8664 C   0  0  0  0  0  0  0  0  0  0  0  0
   94.0753   49.5023   72.6061 C   0  0  0  0  0  0  0  0  0  0  0  0
   90.9933   45.1271   72.2453 C   0  0  0  0  0  0  0  0  0  0  0  0
   95.0714   49.4423   73.7653 C   0  0  0  0  0  0  0  0  0  0  0  0
   96.1509   45.9747   74.0388 C   0  0  0  0  0  0  0  0  0  0  0  0
   94.4797   48.4852   71.5667 O   0  0  0  0  0  0  0  0  0  0  0  0
   91.6988   47.5314   71.1250 C   0  0  0  0  0  0  0  0  0  0  0  0
   90.4100   47.0643   70.9442 C   0  0  0  0  0  0  0  0  0  0  0  0
   97.4671   48.7350   74.1571 C   0  0  0  0  0  0  0  0  0  0  0  0
   94.2219   47.1040   72.0841 C   0  0  0  0  0  0  0  0  0  0  0  0
  1  8  1  0
  1 17  1  0
  1 22  1  0
  2  7  1  0
  2 12  1  0
  2 13  1  0
  2 17  1  0
  3 10  1  0
  3 14  1  0
  4 15  1  0
  5 15  2  0
  5 20  1  0
  6 11  2  0
  6 19  1  0
  6 22  1  0
  8 16  1  0
  8 21  1  0
  9 12  1  0
 11 15  1  0
 12 21  1  0
 14 16  1  0
 14 18  1  0
 18 22  1  0
 19 20  2  0
M  END
>  <ID>  (1) 
conformer_0

$$$$
