
     RDKit          3D

 31 32  0  0  0  0  0  0  0  0999 V2000
   96.6787   46.7842   75.0192 P   0  0  0  0  0  0  0  0  0  0  0  0
   93.2964   48.3480   71.5151 C   0  0  0  0  0  0  0  0  0  0  0  0
   90.8698   45.4069   73.0238 C   0  0  0  0  0  0  0  0  0  0  0  0
   95.6377   47.2004   73.7215 C   0  0  0  0  0  0  0  0  0  0  0  0
   99.2680   46.8717   74.8052 C   0  0  0  0  0  0  0  0  0  0  0  0
   99.6076   44.3466   74.6809 O   0  0  0  0  0  0  0  0  0  0  0  0
   90.5987   46.9416   71.0960 C   0  0  0  0  0  0  0  0  0  0  0  0
   99.7758   47.0306   76.2150 C   0  0  0  0  0  0  0  0  0  0  0  0
   90.3663   46.0593   70.0950 O   0  0  0  0  0  0  0  0  0  0  0  0
   89.6826   44.9263   72.5608 N   0  0  0  0  0  0  0  0  0  0  0  0
   93.0067   49.5452   70.5417 C   0  0  0  0  0  0  0  0  0  0  0  0
   96.5079   52.2619   73.9793 C   0  0  0  0  0  0  0  0  0  0  0  0
   97.9980   47.6406   74.8187 O   0  0  0  0  0  0  0  0  0  0  0  0
   96.3153   50.5990   72.1429 C   0  0  0  0  0  0  0  0  0  0  0  0
   92.8761   46.9255   72.0658 C   0  0  0  0  0  0  0  0  0  0  0  0
   91.5238   46.4268   72.1654 C   0  0  0  0  0  0  0  0  0  0  0  0
   94.5124   48.8533   72.3313 N   0  0  0  0  0  0  0  0  0  0  0  0
   97.3318   51.2847   71.4247 C   0  0  0  0  0  0  0  0  0  0  0  0
   91.2667   45.1186   74.1597 O   0  0  0  0  0  0  0  0  0  0  0  0
   95.9941   46.9437   76.3621 O   0  0  0  0  0  0  0  0  0  0  0  0
   95.4700   49.5827   71.4191 C   0  0  0  0  0  0  0  0  0  0  0  0
   93.6234   49.3058   69.3540 O   0  0  0  0  0  0  0  0  0  0  0  0
   97.4437   45.1824   75.0852 O   0  0  0  0  0  0  0  0  0  0  0  0
   97.3388   53.0309   73.1252 C   0  0  0  0  0  0  0  0  0  0  0  0
   99.9908   47.3858   73.7089 O   0  0  0  0  0  0  0  0  0  0  0  0
   92.6089   50.7312   71.4272 C   0  0  0  0  0  0  0  0  0  0  0  0
   96.0810   50.9872   73.5125 C   0  0  0  0  0  0  0  0  0  0  0  0
   95.4207   49.9493   74.4203 C   0  0  0  0  0  0  0  0  0  0  0  0
   95.1741   48.6808   73.6108 C   0  0  0  0  0  0  0  0  0  0  0  0
   98.8053   45.3964   74.6623 C   0  0  0  0  0  0  0  0  0  0  0  0
   97.8014   52.4846   71.9342 C   0  0  0  0  0  0  0  0  0  0  0  0
  1  4  1  0
  1 13  1  0
  1 20  1  0
  2 11  1  0
  2 15  1  0
  2 17  1  0
  3 10  1  0
  3 16  1  0
  3 19  2  0
  4 29  2  3
  5  8  1  0
  5 13  1  0
  5 25  1  0
  5 30  1  0
  6 30  2  0
  7  9  1  0
  7 16  1  0
 11 22  1  0
 11 26  1  0
 12 24  1  0
 12 27  2  0
 14 18  1  0
 14 21  1  0
 14 27  1  0
 15 16  1  0
 17 21  1  0
 17 29  1  0
 18 31  1  0
 23 30  1  0
 24 31  2  0
 27 28  1  0
 28 29  1  0
M  END
>  <ID>  (1) 
conformer_0

$$$$
