
     RDKit          3D

 28 30  0  0  0  0  0  0  0  0999 V2000
   97.2683   49.6058   75.4986 C   0  0  0  0  0  0  0  0  0  0  0  0
   98.9597   47.5843   74.9062 C   0  0  0  0  0  0  0  0  0  0  0  0
   93.3328   46.6071   71.3454 C   0  0  0  0  0  0  0  0  0  0  0  0
   91.8151   46.1259   71.6995 C   0  0  0  0  0  0  0  0  0  0  0  0
   93.7086   46.7247   73.9619 O   0  0  0  0  0  0  0  0  0  0  0  0
   94.8317   48.6992   72.9074 C   0  0  0  0  0  0  0  0  0  0  0  0
   99.9090   46.0578   77.0941 O   0  0  0  0  0  0  0  0  0  0  0  0
   91.9907   44.6376   71.3036 C   0  0  0  0  0  0  0  0  0  0  0  0
   92.5356   51.3611   71.6666 C   0  0  0  0  0  0  0  0  0  0  0  0
   89.4638   45.4748   71.6782 O   0  0  0  0  0  0  0  0  0  0  0  0
   95.8680   49.9747   74.8610 C   0  0  0  0  0  0  0  0  0  0  0  0
   98.4487   46.2472   75.2499 C   0  0  0  0  0  0  0  0  0  0  0  0
   95.7672   49.6733   73.3935 N   0  0  0  0  0  0  0  0  0  0  0  0
   96.0687   46.8332   74.4765 C   0  0  0  0  0  0  0  0  0  0  0  0
   91.0316   47.0513   70.6889 C   0  0  0  0  0  0  0  0  0  0  0  0
   90.5944   45.8696   72.6877 C   0  0  0  0  0  0  0  0  0  0  0  0
   99.3386   45.4576   76.1702 C   0  0  0  0  0  0  0  0  0  0  0  0
   93.8020   50.5280   71.5330 C   0  0  0  0  0  0  0  0  0  0  0  0
   97.2459   45.8832   74.4513 C   0  0  0  0  0  0  0  0  0  0  0  0
   98.1002   48.7629   74.5394 C   0  0  0  0  0  0  0  0  0  0  0  0
   94.9344   47.2881   73.4928 C   0  0  0  0  0  0  0  0  0  0  0  0
   91.8082   48.3065   70.6686 N   0  0  0  0  0  0  0  0  0  0  0  0
   95.7674   47.0206   75.8529 O   0  0  0  0  0  0  0  0  0  0  0  0
   93.2321   48.1724   71.0632 C   0  0  0  0  0  0  0  0  0  0  0  0
   93.6033   49.1909   72.1582 C   0  0  0  0  0  0  0  0  0  0  0  0
   99.4766   44.2620   75.8467 O   0  0  0  0  0  0  0  0  0  0  0  0
   89.7043   46.2995   70.4907 C   0  0  0  0  0  0  0  0  0  0  0  0
   95.0271   50.8435   71.1472 O   0  0  0  0  0  0  0  0  0  0  0  0
  1 11  1  0
  1 20  1  0
  2 12  1  0
  2 20  1  0
  3  4  1  0
  3 24  1  0
  4  8  1  0
  4 15  1  0
  4 16  1  0
  5 21  1  0
  6 13  1  0
  6 21  1  0
  6 25  1  0
  7 17  2  0
  9 18  1  0
 10 16  1  0
 10 27  1  0
 11 13  1  0
 12 17  1  0
 12 19  1  0
 14 19  1  0
 14 21  1  0
 14 23  1  0
 15 22  1  0
 15 27  1  0
 17 26  1  0
 18 25  1  0
 18 28  1  0
 22 24  1  0
 24 25  1  0
M  END
>  <ID>  (1) 
conformer_0

$$$$
