
     RDKit          3D

 30 33  0  0  0  0  0  0  0  0999 V2000
   96.3011   47.2984   75.0376 S   0  0  0  0  0  4  0  0  0  0  0  0
   98.5268   51.8238   73.3581 C   0  0  0  0  0  0  0  0  0  0  0  0
   91.6316   48.2323   70.8051 C   0  0  0  0  0  0  0  0  0  0  0  0
   91.6788   46.7296   71.1658 C   0  0  0  0  0  0  0  0  0  0  0  0
   98.6604   47.3236   73.6186 C   0  0  0  0  0  0  0  0  0  0  0  0
   90.3136   46.1315   71.2958 C   0  0  0  0  0  0  0  0  0  0  0  0
   89.3071   46.4269   70.6004 O   0  0  0  0  0  0  0  0  0  0  0  0
   96.5209   48.8787   74.9799 N   0  0  0  0  0  0  0  0  0  0  0  0
   94.4050   47.8495   72.2074 C   0  0  0  0  0  0  0  0  0  0  0  0
   97.3662   50.7809   73.3438 C   0  0  0  0  0  0  0  0  0  0  0  0
   94.5729   46.6377   73.0461 C   0  0  0  0  0  0  0  0  0  0  0  0
   90.3871   45.0593   72.2308 C   0  0  0  0  0  0  0  0  0  0  0  0
   93.9498   45.5033   72.4152 C   0  0  0  0  0  0  0  0  0  0  0  0
   97.8005   46.7319   74.6032 C   0  0  0  0  0  0  0  0  0  0  0  0
   97.9430   53.1302   73.2633 O   0  0  0  0  0  0  0  0  0  0  0  0
   99.8692   45.2814   74.5273 S   0  0  0  0  0  0  0  0  0  0  0  0
   94.0675   47.8278   70.6970 C   0  0  0  0  0  0  0  0  0  0  0  0
   94.9711   50.1216   73.2759 C   0  0  0  0  0  0  0  0  0  0  0  0
   89.3933   44.5316   72.8522 N   0  0  0  0  0  0  0  0  0  0  0  0
   92.9453   48.8891   70.4817 C   0  0  0  0  0  0  0  0  0  0  0  0
   95.6447   51.9345   71.9741 O   0  0  0  0  0  0  0  0  0  0  0  0
   92.5967   45.7413   71.8728 C   0  0  0  0  0  0  0  0  0  0  0  0
   95.4660   48.9294   72.3902 C   0  0  0  0  0  0  0  0  0  0  0  0
   99.8003   46.6471   73.4279 C   0  0  0  0  0  0  0  0  0  0  0  0
   95.9812   47.0065   76.3430 O   0  0  0  0  0  0  0  0  0  0  0  0
   95.2689   46.6801   74.0988 O   0  0  0  0  0  0  0  0  0  0  0  0
   95.9578   51.3043   73.1894 C   0  0  0  0  0  0  0  0  0  0  0  0
   91.6883   44.8106   72.5725 N   0  0  0  0  0  0  0  0  0  0  0  0
   98.3853   45.4851   75.1355 C   0  0  0  0  0  0  0  0  0  0  0  0
   97.5096   49.9452   74.6397 C   0  0  0  0  0  0  0  0  0  0  0  0
  1  8  1  0
  1 14  1  0
  1 25  1  0
  1 26  1  0
  2 10  1  0
  2 15  1  0
  3  4  1  0
  3 20  1  0
  4  6  1  0
  4 22  1  0
  5 14  1  0
  5 24  1  0
  6  7  2  0
  6 12  1  0
  8 30  1  0
  9 11  1  0
  9 17  1  0
  9 23  1  0
 10 27  1  0
 10 30  1  0
 11 13  1  0
 11 26  1  0
 12 19  2  0
 12 28  1  0
 13 22  1  0
 14 29  1  0
 16 24  1  0
 16 29  1  0
 17 20  1  0
 18 23  1  0
 18 27  1  0
 21 27  1  0
 22 28  1  0
M  END
>  <ID>  (1) 
conformer_0

$$$$
