
     RDKit          3D

 30 32  0  0  0  0  0  0  0  0999 V2000
   95.4142   47.9320   73.8822 C   0  0  0  0  0  0  0  0  0  0  0  0
   93.0740   46.3090   72.8571 C   0  0  0  0  0  0  0  0  0  0  0  0
   89.6347   45.2755   71.9200 N   0  0  0  0  0  0  0  0  0  0  0  0
   99.3252   45.6956   75.9628 P   0  0  0  0  0  4  0  0  0  0  0  0
   90.6787   45.0275   72.7599 C   0  0  0  0  0  0  0  0  0  0  0  0
   97.5701   50.5904   72.2066 C   0  0  0  0  0  0  0  0  0  0  0  0
   95.0312   51.3518   71.4338 O   0  0  0  0  0  0  0  0  0  0  0  0
   98.7551   44.3343   75.6199 O   0  0  0  0  0  1  0  0  0  0  0  0
   95.0050   47.0855   74.8676 O   0  0  0  0  0  0  0  0  0  0  0  0
   96.2449   49.9006   74.9914 O   0  0  0  0  0  0  0  0  0  0  0  0
   97.9913   46.6779   76.1527 O   0  0  0  0  0  0  0  0  0  0  0  0
   97.7628   48.1633   74.0516 C   0  0  0  0  0  0  0  0  0  0  0  0
  100.1993   45.6922   77.2285 O   0  0  0  0  0  0  0  0  0  0  0  0
   97.4246   46.9820   74.9508 O   0  0  0  0  0  0  0  0  0  0  0  0
   94.0571   48.7971   70.4008 O   0  0  0  0  0  0  0  0  0  0  0  0
   91.4826   48.4970   69.5598 O   0  0  0  0  0  0  0  0  0  0  0  0
   91.8860   47.7907   70.6592 C   0  0  0  0  0  0  0  0  0  0  0  0
   94.2948   48.4113   73.0653 C   0  0  0  0  0  0  0  0  0  0  0  0
   91.7481   45.9505   72.4441 C   0  0  0  0  0  0  0  0  0  0  0  0
   89.1757   46.7183   70.1606 N   0  0  0  0  0  0  0  0  0  0  0  0
   94.0403   49.7978   73.0150 C   0  0  0  0  0  0  0  0  0  0  0  0
   90.7910   44.0536   73.6923 N   0  0  0  0  0  0  0  0  0  0  0  0
   89.9166   46.2855   71.0997 C   0  0  0  0  0  0  0  0  0  0  0  0
   93.2170   48.1605   71.1668 C   0  0  0  0  0  0  0  0  0  0  0  0
   96.4269   49.7584   72.5553 C   0  0  0  0  0  0  0  0  0  0  0  0
   93.5369   47.4968   72.2998 N   0  0  0  0  0  0  0  0  0  0  0  0
   96.4804   49.0095   73.8896 C   0  0  0  0  0  0  0  0  0  0  0  0
   95.1687   50.5348   72.4830 C   0  0  0  0  0  0  0  0  0  0  0  0
   91.2195   46.7617   71.3847 C   0  0  0  0  0  0  0  0  0  0  0  0
  100.0669   46.2847   74.8057 O   0  0  0  0  0  0  0  0  0  0  0  0
  1  9  1  0
  1 18  1  0
  1 27  1  0
  2 19  1  0
  2 26  1  0
  3  5  1  0
  3 23  1  0
  4  8  2  0
  4 11  1  0
  4 13  1  0
  4 30  1  0
  5 19  1  0
  5 22  2  0
  6 25  1  0
  7 28  1  0
 10 27  1  0
 11 14  1  0
 12 14  1  0
 12 27  1  0
 15 24  2  0
 16 17  1  0
 17 24  1  0
 17 29  2  0
 18 21  1  0
 18 26  1  0
 19 29  1  0
 20 23  2  0
 21 28  1  0
 23 29  1  0
 24 26  1  0
 25 27  1  0
 25 28  1  0
M  END
>  <ID>  (1) 
conformer_0

$$$$
