
     RDKit          3D

 15 14  0  0  0  0  0  0  0  0999 V2000
   97.9522   45.6415   75.1864 C   0  0  0  0  0  0  0  0  0  0  0  0
   95.2108   47.5523   73.8894 C   0  0  0  0  0  0  0  0  0  0  0  0
   92.1889   48.2460   70.5615 C   0  0  0  0  0  0  0  0  0  0  0  0
   91.7862   45.8549   71.2782 C   0  0  0  0  0  0  0  0  0  0  0  0
   96.8980   45.8161   74.2491 C   0  0  0  0  0  0  0  0  0  0  0  0
   91.2948   47.2981   71.1187 C   0  0  0  0  0  0  0  0  0  0  0  0
   95.2758   49.0278   74.1847 C   0  0  0  0  0  0  0  0  0  0  0  0
   94.0875   46.8513   73.0229 C   0  0  0  0  0  0  0  0  0  0  0  0
   90.6249   44.4924   72.9193 C   0  0  0  0  0  0  0  0  0  0  0  0
   92.9947   45.7574   72.2478 C   0  0  0  0  0  0  0  0  0  0  0  0
   96.0891   49.2959   75.4324 C   0  0  0  0  0  0  0  0  0  0  0  0
   98.8406   44.5040   74.7129 C   0  0  0  0  0  0  0  0  0  0  0  0
   90.6719   44.9926   71.5620 O   0  0  0  0  0  0  0  0  0  0  0  0
   93.1165   48.8722   69.7462 C   0  0  0  0  0  0  0  0  0  0  0  0
   96.5884   46.9978   73.4128 C   0  0  0  0  0  0  0  0  0  0  0  0
  1  5  1  0
  1 12  1  0
  2  7  1  0
  2  8  1  0
  2 15  1  0
  3  6  1  0
  3 14  1  0
  4  6  1  0
  4 10  1  0
  4 13  1  0
  5 15  1  0
  7 11  1  0
  8 10  1  0
  9 13  1  0
M  END
>  <ID>  (1) 
conformer_0

$$$$
