
     RDKit          3D

 24 25  0  0  0  0  0  0  0  0999 V2000
   95.4183   49.3429   73.7136 C   0  0  0  0  0  0  0  0  0  0  0  0
   94.9742   48.5179   72.4905 C   0  0  0  0  0  0  0  0  0  0  0  0
   98.8450   46.3473   76.5259 O   0  0  0  0  0  1  0  0  0  0  0  0
   91.3367   46.8842   71.0134 C   0  0  0  0  0  0  0  0  0  0  0  0
   96.8275   50.8938   75.2538 O   0  0  0  0  0  0  0  0  0  0  0  0
   96.0533   47.4117   72.3154 C   0  0  0  0  0  0  0  0  0  0  0  0
   92.0488   48.1622   70.4157 C   0  0  0  0  0  0  0  0  0  0  0  0
   96.7737   48.8104   74.1593 C   0  0  0  0  0  0  0  0  0  0  0  0
   96.2339   46.7158   76.1365 O   0  0  0  0  0  0  0  0  0  0  0  0
   97.2582   49.5181   75.4051 C   0  0  0  0  0  0  0  0  0  0  0  0
   94.6175   49.6065   71.3576 C   0  0  0  0  0  0  0  0  0  0  0  0
   98.0561   46.5018   73.7876 C   0  0  0  0  0  0  0  0  0  0  0  0
   97.0674   47.5611   73.4242 C   0  0  0  0  0  0  0  0  0  0  0  0
   92.8265   46.5187   72.9988 C   0  0  0  0  0  0  0  0  0  0  0  0
   91.9222   46.0169   72.0412 C   0  0  0  0  0  0  0  0  0  0  0  0
   93.3466   49.1695   70.5121 C   0  0  0  0  0  0  0  0  0  0  0  0
   93.6260   47.7847   72.7724 C   0  0  0  0  0  0  0  0  0  0  0  0
   90.1398   46.3464   70.3490 C   0  0  0  0  0  0  0  0  0  0  0  0
   89.5472   47.0790   69.4178 N   0  0  0  0  0  0  0  0  0  0  0  0
   99.3895   45.8293   73.5854 C   0  0  0  0  0  0  0  0  0  0  0  0
   97.3062   44.4827   75.5633 O   0  0  0  0  0  0  0  0  0  0  0  0
   91.6080   44.6565   72.0840 N   0  0  0  0  0  0  0  0  0  0  0  0
   97.5715   46.0019   75.6236 P   0  0  0  0  0  4  0  0  0  0  0  0
   99.6124   44.5135   74.1019 O   0  0  0  0  0  0  0  0  0  0  0  0
  1  2  1  0
  1  8  1  0
  2  6  1  0
  2 11  1  0
  2 17  1  0
  3 23  2  0
  4  7  2  0
  4 15  1  0
  4 18  1  0
  5 10  1  0
  6 13  1  0
  7 16  1  0
  8 10  1  0
  8 13  2  0
  9 23  1  0
 11 16  1  0
 12 13  1  0
 12 20  1  0
 12 23  1  0
 14 15  1  0
 14 17  1  0
 15 22  1  0
 18 19  2  0
 20 24  1  0
 21 23  1  0
M  END
>  <ID>  (1) 
conformer_0

$$$$
