
     RDKit          3D

 27 29  0  0  0  0  0  0  0  0999 V2000
   98.6169   47.5104   74.3712 C   0  0  0  0  0  0  0  0  0  0  0  0
   95.6670   49.5248   72.4423 C   0  0  0  0  0  0  0  0  0  0  0  0
   91.8917   48.2320   70.8132 N   0  0  0  0  0  0  0  0  0  0  0  0
   95.5738   45.7974   74.4405 O   0  0  0  0  0  1  0  0  0  0  0  0
   89.7269   46.6628   71.1301 C   0  0  0  0  0  0  0  0  0  0  0  0
   94.5924   48.9599   71.5618 N   0  0  0  0  0  0  0  0  0  0  0  0
   91.5860   45.5876   72.8744 C   0  0  0  0  0  0  0  0  0  0  0  0
   93.6455   49.8950   71.0771 C   0  0  0  0  0  0  0  0  0  0  0  0
   92.2349   46.0190   71.6929 C   0  0  0  0  0  0  0  0  0  0  0  0
   92.7779   47.2920   71.3249 C   0  0  0  0  0  0  0  0  0  0  0  0
   90.2561   44.9842   72.7974 C   0  0  0  0  0  0  0  0  0  0  0  0
   92.4433   49.4649   70.5240 N   0  0  0  0  0  0  0  0  0  0  0  0
   98.3539   49.6060   72.9172 O   0  0  0  0  0  1  0  0  0  0  0  0
   96.2120   48.5493   73.3907 O   0  0  0  0  0  0  0  0  0  0  0  0
   90.5640   47.7746   70.6398 C   0  0  0  0  0  0  0  0  0  0  0  0
   97.9454   46.3462   73.8431 O   0  0  0  0  0  0  0  0  0  0  0  0
   89.9823   43.9057   73.5729 N   0  0  0  0  0  0  0  0  0  0  0  0
   89.4031   45.5823   71.8974 N   0  0  0  0  0  0  0  0  0  0  0  0
   96.8398   45.9308   75.1536 P   0  0  0  0  0  4  0  0  0  0  0  0
   93.7564   51.1722   71.9213 C   0  0  0  0  0  0  0  0  0  0  0  0
   94.1978   47.5830   71.4902 C   0  0  0  0  0  0  0  0  0  0  0  0
   97.6181   48.9309   73.9883 P   0  0  0  0  0  4  0  0  0  0  0  0
   97.5548   49.7978   75.3904 O   0  0  0  0  0  0  0  0  0  0  0  0
   94.8975   50.8290   73.1589 C   0  0  0  0  0  0  0  0  0  0  0  0
   96.4514   46.9400   76.3014 O   0  0  0  0  0  0  0  0  0  0  0  0
   97.6660   44.8040   75.8197 O   0  0  0  0  0  0  0  0  0  0  0  0
   99.0877   50.1006   75.5710 O   0  0  0  0  0  0  0  0  0  0  0  0
  1 16  1  0
  1 22  1  0
  2  6  1  0
  2 14  1  0
  2 24  1  0
  3 10  1  0
  3 12  1  0
  3 15  1  0
  4 19  2  0
  5 15  1  0
  5 18  1  0
  6  8  1  0
  6 21  1  0
  7  9  1  0
  7 11  1  0
  8 12  2  0
  8 20  1  0
  9 10  1  0
 10 21  1  0
 11 17  2  0
 11 18  1  0
 13 22  2  0
 14 22  1  0
 16 19  1  0
 19 25  1  0
 19 26  1  0
 20 24  1  0
 22 23  1  0
 23 27  1  0
M  END
>  <ID>  (1) 
conformer_0

$$$$
