
     RDKit          3D

 33 34  0  0  0  0  0  0  0  0999 V2000
   97.9284   47.8092   75.5080 O   0  0  0  0  0  0  0  0  0  0  0  0
   90.5383   44.0579   73.2320 C   0  0  0  0  0  0  0  0  0  0  0  0
   94.7423   49.2785   72.5433 C   0  0  0  0  0  0  0  0  0  0  0  0
   99.3222   44.0245   74.8364 O   0  0  0  0  0  1  0  0  0  0  0  0
   97.1994   45.2844   76.2554 O   0  0  0  0  0  1  0  0  0  0  0  0
   93.3077   49.4235   71.9088 C   0  0  0  0  0  0  0  0  0  0  0  0
   96.9526   46.4363   75.2551 P   0  0  0  0  0  4  0  0  0  0  0  0
   91.5399   46.1733   72.4287 C   0  0  0  0  0  0  0  0  0  0  0  0
   95.6330   50.4879   72.3375 C   0  0  0  0  0  0  0  0  0  0  0  0
   95.5478   46.8461   75.1295 O   0  0  0  0  0  0  0  0  0  0  0  0
   91.2489   51.4955   71.4278 C   0  0  0  0  0  0  0  0  0  0  0  0
   90.6049   47.1883   70.5259 C   0  0  0  0  0  0  0  0  0  0  0  0
   92.6947   48.2954   71.0329 C   0  0  0  0  0  0  0  0  0  0  0  0
   92.3036   49.8121   68.9711 O   0  0  0  0  0  0  0  0  0  0  0  0
   99.3008   45.3654   74.4582 P   0  0  0  0  0  0  0  0  0  0  0  0
   91.8788   49.0216   69.9929 C   0  0  0  0  0  0  0  0  0  0  0  0
   96.7474   52.2920   73.5147 C   0  0  0  0  0  0  0  0  0  0  0  0
   93.5978   50.5049   70.9627 O   0  0  0  0  0  0  0  0  0  0  0  0
   96.1990   50.7775   71.1706 O   0  0  0  0  0  0  0  0  0  0  0  0
   91.6421   47.2377   71.5064 C   0  0  0  0  0  0  0  0  0  0  0  0
   90.8923   48.1112   69.5351 O   0  0  0  0  0  0  0  0  0  0  0  0
   96.5399   50.8125   73.3990 N   0  0  0  0  0  0  0  0  0  0  0  0
   89.6449   46.2446   70.5258 N   0  0  0  0  0  0  0  0  0  0  0  0
   93.8888   47.6643   70.4297 O   0  0  0  0  0  0  0  0  0  0  0  0
   92.6677   51.5548   71.0214 C   0  0  0  0  0  0  0  0  0  0  0  0
   98.0081   48.6980   74.2511 C   0  0  0  0  0  0  0  0  0  0  0  0
   90.5022   45.1825   72.3769 C   0  0  0  0  0  0  0  0  0  0  0  0
   92.4354   46.0619   73.4105 N   0  0  0  0  0  0  0  0  0  0  0  0
   89.5538   45.3302   71.4268 N   0  0  0  0  0  0  0  0  0  0  0  0
   96.9448   49.7876   74.3030 C   0  0  0  0  0  0  0  0  0  0  0  0
   97.8890   45.9386   73.9234 O   0  0  0  0  0  0  0  0  0  0  0  0
  100.3175   46.3012   74.4927 O   0  0  0  0  0  1  0  0  0  0  0  0
   96.4821   50.0176   75.8293 C   0  0  0  0  0  0  0  0  0  0  0  0
  1  7  1  0
  1 26  1  0
  2 27  1  0
  3  6  1  0
  3  9  1  0
  4 15  1  0
  5  7  2  0
  6 13  1  0
  6 18  1  0
  7 10  1  0
  7 31  1  0
  8 20  1  0
  8 27  2  0
  8 28  1  0
  9 19  2  0
  9 22  1  0
 11 25  1  0
 12 20  1  0
 12 21  1  0
 12 23  2  0
 13 16  1  0
 13 20  1  0
 13 24  1  0
 14 16  2  0
 15 31  1  0
 15 32  1  0
 16 21  1  0
 17 22  1  0
 18 25  1  0
 22 30  1  0
 23 29  1  0
 26 30  1  0
 27 29  1  0
 30 33  1  0
M  END
>  <ID>  (1) 
conformer_0

$$$$
