
     RDKit          3D

 24 25  0  0  0  0  0  0  0  0999 V2000
   91.8404   46.7999   71.5618 C   0  0  0  0  0  0  0  0  0  0  0  0
   96.3674   46.9404   75.7264 O   0  0  0  0  0  0  0  0  0  0  0  0
   94.3742   50.4301   71.5162 O   0  0  0  0  0  0  0  0  0  0  0  0
   90.8098   46.1493   70.9079 C   0  0  0  0  0  0  0  0  0  0  0  0
   90.1679   46.4357   69.7571 N   0  0  0  0  0  0  0  0  0  0  0  0
   96.0899   50.0655   74.2843 C   0  0  0  0  0  0  0  0  0  0  0  0
   93.4377   47.0422   73.2751 C   0  0  0  0  0  0  0  0  0  0  0  0
   95.7609   49.3047   73.0378 C   0  0  0  0  0  0  0  0  0  0  0  0
   94.2739   49.4586   72.6191 C   0  0  0  0  0  0  0  0  0  0  0  0
   93.5015   48.2004   72.3767 N   0  0  0  0  0  0  0  0  0  0  0  0
   96.9128   45.5235   75.5409 O   0  0  0  0  0  0  0  0  0  0  0  0
   92.5565   48.6296   70.2692 O   0  0  0  0  0  0  0  0  0  0  0  0
   93.6506   50.3000   73.7126 C   0  0  0  0  0  0  0  0  0  0  0  0
   91.4088   44.9141   72.8966 C   0  0  0  0  0  0  0  0  0  0  0  0
   98.5658   45.5570   75.3136 P   0  0  0  0  0  4  0  0  0  0  0  0
   95.8768   51.3565   74.7639 O   0  0  0  0  0  0  0  0  0  0  0  0
   92.3256   46.1670   72.7653 C   0  0  0  0  0  0  0  0  0  0  0  0
   96.8299   49.2429   75.3409 C   0  0  0  0  0  0  0  0  0  0  0  0
   99.1343   44.1409   75.2156 O   0  0  0  0  0  1  0  0  0  0  0  0
   92.6285   47.9754   71.3187 C   0  0  0  0  0  0  0  0  0  0  0  0
   96.7958   47.9219   74.9504 O   0  0  0  0  0  0  0  0  0  0  0  0
   98.7337   46.2771   73.9428 O   0  0  0  0  0  0  0  0  0  0  0  0
   99.1002   46.3503   76.5607 O   0  0  0  0  0  0  0  0  0  0  0  0
   90.4329   45.0285   71.5523 N   0  0  0  0  0  0  0  0  0  0  0  0
  1  4  1  0
  1 17  2  0
  1 20  1  0
  2 11  1  0
  2 21  1  0
  3  9  1  0
  4  5  2  0
  4 24  1  0
  6  8  1  0
  6 16  1  0
  6 18  1  0
  7 10  1  0
  7 17  1  0
  8  9  1  0
  9 10  1  0
  9 13  1  0
 10 20  1  0
 11 15  1  0
 12 20  2  0
 14 17  1  0
 14 24  1  0
 15 19  2  0
 15 22  1  0
 15 23  1  0
 18 21  1  0
M  END
>  <ID>  (1) 
conformer_0

$$$$
