
     RDKit          3D

 17 16  0  0  0  0  0  0  0  0999 V2000
   95.8201   48.6747   73.6565 C   0  0  0  0  0  0  0  0  0  0  0  0
   90.7839   45.6931   71.6166 C   0  0  0  0  0  0  0  0  0  0  0  0
   93.5140   45.7952   72.4131 O   0  0  0  0  0  0  0  0  0  0  0  0
   94.3459   48.2382   73.4606 C   0  0  0  0  0  0  0  0  0  0  0  0
   96.0489   47.2602   76.0036 O   0  0  0  0  0  1  0  0  0  0  0  0
   94.1621   49.4129   71.2028 C   0  0  0  0  0  0  0  0  0  0  0  0
   96.5918   47.8934   74.7350 P   0  0  0  0  0  4  0  0  0  0  0  0
   90.1295   44.6810   72.4240 O   0  0  0  0  0  0  0  0  0  0  0  0
   98.7214   46.7601   75.6833 C   0  0  0  0  0  0  0  0  0  0  0  0
   99.3726   47.5784   76.3722 O   0  0  0  0  0  0  0  0  0  0  0  0
   93.8926   49.0992   69.7947 O   0  0  0  0  0  0  0  0  0  0  0  0
   98.5065   45.5295   76.0199 O   0  0  0  0  0  0  0  0  0  0  0  0
   89.6040   46.3145   70.8562 C   0  0  0  0  0  0  0  0  0  0  0  0
   93.1096   46.9463   71.6296 C   0  0  0  0  0  0  0  0  0  0  0  0
   93.7609   48.2599   72.0785 C   0  0  0  0  0  0  0  0  0  0  0  0
   91.6053   46.9808   71.6077 C   0  0  0  0  0  0  0  0  0  0  0  0
   98.0112   47.2830   74.4187 C   0  0  0  0  0  0  0  0  0  0  0  0
  1  4  1  0
  1  7  1  0
  2  8  1  0
  2 13  1  0
  2 16  1  0
  3 14  1  0
  4 15  1  0
  5  7  2  0
  6 11  1  0
  6 15  1  0
  7 17  1  0
  9 10  2  0
  9 12  1  0
  9 17  1  0
 14 15  1  0
 14 16  1  0
M  END
>  <ID>  (1) 
conformer_0

$$$$
