
     RDKit          3D

 33 32  0  0  0  0  0  0  0  0999 V2000
   95.9431   47.0035   73.5824 C   0  0  0  0  0  0  0  0  0  0  0  0
   98.5353   49.1126   72.7722 O   0  0  0  0  0  0  0  0  0  0  0  0
   96.0813   49.7596   74.0774 C   0  0  0  0  0  0  0  0  0  0  0  0
   89.4430   46.6254   70.1890 O   0  0  0  0  0  0  0  0  0  0  0  0
   97.5284   45.4870   74.8565 C   0  0  0  0  0  0  0  0  0  0  0  0
   97.1703   50.7663   73.7565 C   0  0  0  0  0  0  0  0  0  0  0  0
   98.4906   50.1593   73.4519 C   0  0  0  0  0  0  0  0  0  0  0  0
   94.9282   50.4947   74.4521 O   0  0  0  0  0  0  0  0  0  0  0  0
   91.2900   46.6767   71.6702 C   0  0  0  0  0  0  0  0  0  0  0  0
   99.7213   44.4917   76.1516 O   0  0  0  0  0  0  0  0  0  0  0  0
   94.4469   48.7609   72.5575 O   0  0  0  0  0  0  0  0  0  0  0  0
   96.6519   51.6505   72.6158 C   0  0  0  0  0  0  0  0  0  0  0  0
   95.6370   48.4605   73.4064 C   0  0  0  0  0  0  0  0  0  0  0  0
   93.5836   50.1704   70.7878 O   0  0  0  0  0  0  0  0  0  0  0  0
   94.4029   50.0474   71.9158 C   0  0  0  0  0  0  0  0  0  0  0  0
   93.6518   47.6142   71.8282 P   0  0  0  0  0  0  0  0  0  0  0  0
   96.0482   46.9040   76.0362 O   0  0  0  0  0  0  0  0  0  0  0  0
   91.7634   44.7399   73.0299 O   0  0  0  0  0  0  0  0  0  0  0  0
   89.9657   46.2813   71.2812 C   0  0  0  0  0  0  0  0  0  0  0  0
   96.4228   46.4415   74.8755 C   0  0  0  0  0  0  0  0  0  0  0  0
   94.8099   52.3735   71.3745 O   0  0  0  0  0  0  0  0  0  0  0  0
   99.5255   50.6092   74.0583 O   0  0  0  0  0  0  0  0  0  0  0  0
   96.4461   46.3317   72.5356 O   0  0  0  0  0  0  0  0  0  0  0  0
   99.6166   45.7242   76.0866 C   0  0  0  0  0  0  0  0  0  0  0  0
   92.1342   47.7680   71.1762 C   0  0  0  0  0  0  0  0  0  0  0  0
   98.8903   46.2009   74.8472 C   0  0  0  0  0  0  0  0  0  0  0  0
   92.0298   45.9079   72.6395 C   0  0  0  0  0  0  0  0  0  0  0  0
   95.2511   51.2583   72.1475 C   0  0  0  0  0  0  0  0  0  0  0  0
   94.5688   47.4159   70.5854 O   0  0  0  0  0  0  0  0  0  0  0  0
   97.5974   51.8525   71.6221 O   0  0  0  0  0  0  0  0  0  0  0  0
   89.3024   45.3716   71.9994 N   0  0  0  0  0  0  0  0  0  0  0  0
   99.8025   46.5867   76.9512 O   0  0  0  0  0  0  0  0  0  0  0  0
   93.2801   46.5431   72.9344 O   0  0  0  0  0  0  0  0  0  0  0  0
  1 13  1  0
  1 20  1  0
  1 23  1  0
  2  7  2  0
  3  6  1  0
  3  8  1  0
  3 13  1  0
  4 19  2  0
  5 20  1  0
  5 26  1  0
  6  7  1  0
  6 12  1  0
  7 22  1  0
  9 19  1  0
  9 25  1  0
  9 27  1  0
 10 24  2  0
 11 15  1  0
 11 16  1  0
 12 28  1  0
 12 30  1  0
 14 15  2  0
 15 28  1  0
 16 25  1  0
 16 29  1  0
 17 20  1  0
 18 27  2  0
 19 31  1  0
 21 28  1  0
 24 26  1  0
 24 32  1  0
 27 33  1  0
M  END
>  <ID>  (1) 
conformer_0

$$$$
