
     RDKit          3D

 32 32  0  0  0  0  0  0  0  0999 V2000
  100.4516   44.5094   75.3545 O   0  0  0  0  0  0  0  0  0  0  0  0
   96.8019   49.8242   72.8317 C   0  0  0  0  0  0  0  0  0  0  0  0
   91.7583   47.3321   70.6489 C   0  0  0  0  0  0  0  0  0  0  0  0
   98.2494   44.8895   76.0070 O   0  0  0  0  0  0  0  0  0  0  0  0
   92.6961   47.9417   69.8761 O   0  0  0  0  0  0  0  0  0  0  0  0
   90.1986   48.0672   68.9797 N   0  0  0  0  0  0  0  0  0  0  0  0
   96.9267   49.2053   75.1864 O   0  0  0  0  0  0  0  0  0  0  0  0
   96.9790   50.6385   71.7984 O   0  0  0  0  0  0  0  0  0  0  0  0
   90.9437   45.6177   72.1221 C   0  0  0  0  0  0  0  0  0  0  0  0
   90.4281   47.3111   70.0677 C   0  0  0  0  0  0  0  0  0  0  0  0
   96.1600   48.5010   72.5131 C   0  0  0  0  0  0  0  0  0  0  0  0
   91.9488   46.5172   71.7903 C   0  0  0  0  0  0  0  0  0  0  0  0
   91.2653   44.3895   72.8405 C   0  0  0  0  0  0  0  0  0  0  0  0
  100.2192   46.8559   74.9241 O   0  0  0  0  0  0  0  0  0  0  0  0
   98.3300   47.1844   76.1941 O   0  0  0  0  0  0  0  0  0  0  0  0
   96.2708   50.2604   74.2629 C   0  0  0  0  0  0  0  0  0  0  0  0
   99.5536   45.8559   75.9320 P   0  0  0  0  0  5  0  0  0  0  0  0
   89.6938   45.6925   71.5670 C   0  0  0  0  0  0  0  0  0  0  0  0
   94.1813   49.7306   72.0048 O   0  0  0  0  0  0  0  0  0  0  0  0
   96.7985   52.5698   73.9405 O   0  0  0  0  0  0  0  0  0  0  0  0
   94.6880   48.6273   72.1047 C   0  0  0  0  0  0  0  0  0  0  0  0
   97.0308   47.5888   75.3686 P   0  0  0  0  0  0  0  0  0  0  0  0
  100.2145   45.9887   77.3216 O   0  0  0  0  0  0  0  0  0  0  0  0
   94.2502   47.3161   71.7691 N   0  0  0  0  0  0  0  0  0  0  0  0
   96.1440   47.4469   73.5821 O   0  0  0  0  0  0  0  0  0  0  0  0
   93.5972   45.9880   73.4605 O   0  0  0  0  0  0  0  0  0  0  0  0
   97.3480   46.7850   73.7879 C   0  0  0  0  0  0  0  0  0  0  0  0
   90.2320   43.7841   73.5347 N   0  0  0  0  0  0  0  0  0  0  0  0
   93.2439   46.5350   72.4184 C   0  0  0  0  0  0  0  0  0  0  0  0
   89.5504   46.4551   70.5478 N   0  0  0  0  0  0  0  0  0  0  0  0
   95.8457   47.0704   76.1124 O   0  0  0  0  0  0  0  0  0  0  0  0
   95.6436   51.6903   73.9904 C   0  0  0  0  0  0  0  0  0  0  0  0
  1 17  1  0
  2  8  1  0
  2 11  1  0
  2 16  1  0
  3  5  1  0
  3 10  1  0
  3 12  1  0
  4 17  1  0
  6 10  2  0
  7 16  1  0
  7 22  1  0
  9 12  1  0
  9 13  1  0
  9 18  1  0
 10 30  1  0
 11 21  1  0
 11 25  1  0
 12 29  1  0
 13 28  1  0
 14 17  1  0
 15 17  1  0
 15 22  1  0
 16 32  1  0
 17 23  1  0
 18 30  2  0
 19 21  2  0
 20 32  1  0
 21 24  1  0
 22 31  1  0
 24 29  1  0
 25 27  1  0
 26 29  2  0
M  END
>  <ID>  (1) 
conformer_0

$$$$
