
     RDKit          3D

 28 29  0  0  0  0  0  0  0  0999 V2000
   90.0563   45.7468   72.1831 C   0  0  0  0  0  0  0  0  0  0  0  0
   89.4778   46.4816   71.1935 N   0  0  0  0  0  0  0  0  0  0  0  0
   97.0597   47.3623   73.4956 C   0  0  0  0  0  0  0  0  0  0  0  0
   95.5556   47.2578   73.4954 C   0  0  0  0  0  0  0  0  0  0  0  0
   98.3957   46.6313   73.4517 C   0  0  0  0  0  0  0  0  0  0  0  0
   94.8443   51.3448   72.3670 C   0  0  0  0  0  0  0  0  0  0  0  0
   94.6930   47.9135   72.5188 N   0  0  0  0  0  0  0  0  0  0  0  0
   98.9234   45.5466   75.8919 P   0  0  0  0  0  4  0  0  0  0  0  0
   90.1954   47.4848   70.5702 C   0  0  0  0  0  0  0  0  0  0  0  0
   89.3222   44.7642   72.7846 N   0  0  0  0  0  0  0  0  0  0  0  0
   99.1052   46.6947   74.7281 O   0  0  0  0  0  0  0  0  0  0  0  0
   94.2184   45.6738   71.9258 C   0  0  0  0  0  0  0  0  0  0  0  0
   97.3325   48.6981   74.2435 C   0  0  0  0  0  0  0  0  0  0  0  0
   99.4872   44.2392   75.3240 O   0  0  0  0  0  1  0  0  0  0  0  0
   91.3739   45.9421   72.5530 C   0  0  0  0  0  0  0  0  0  0  0  0
   92.1040   46.9050   71.9017 C   0  0  0  0  0  0  0  0  0  0  0  0
   97.7352   49.4525   75.6030 C   0  0  0  0  0  0  0  0  0  0  0  0
   95.2685   50.5197   73.6085 C   0  0  0  0  0  0  0  0  0  0  0  0
   97.3769   45.4063   76.1145 O   0  0  0  0  0  0  0  0  0  0  0  0
   94.9941   46.7446   74.5148 O   0  0  0  0  0  0  0  0  0  0  0  0
   96.0790   52.2013   71.9082 C   0  0  0  0  0  0  0  0  0  0  0  0
   99.7366   46.0730   77.1420 O   0  0  0  0  0  0  0  0  0  0  0  0
   94.2699   50.2492   71.2988 C   0  0  0  0  0  0  0  0  0  0  0  0
   91.4925   47.6976   70.9287 C   0  0  0  0  0  0  0  0  0  0  0  0
   96.5292   49.7228   73.4029 C   0  0  0  0  0  0  0  0  0  0  0  0
   95.2502   51.3213   74.7635 O   0  0  0  0  0  0  0  0  0  0  0  0
   93.5999   47.0339   72.0963 C   0  0  0  0  0  0  0  0  0  0  0  0
   93.6745   48.8228   71.8741 C   0  0  0  0  0  0  0  0  0  0  0  0
  1  2  1  0
  1 10  2  0
  1 15  1  0
  2  9  2  0
  3  4  1  0
  3  5  1  0
  3 13  1  0
  4  7  1  0
  4 20  2  0
  5 11  1  0
  6 18  1  0
  6 21  1  0
  6 23  1  0
  7 27  1  0
  7 28  1  0
  8 11  1  0
  8 14  2  0
  8 19  1  0
  8 22  1  0
  9 24  1  0
 12 27  1  0
 13 17  1  0
 13 25  1  0
 15 16  1  0
 16 24  2  0
 16 27  1  0
 18 25  1  0
 18 26  1  0
 23 28  1  0
M  END
>  <ID>  (1) 
conformer_0

$$$$
