
     RDKit          3D

 30 34  0  0  0  0  0  0  0  0999 V2000
   98.3090   46.4574   74.8159 C   0  0  0  0  0  0  0  0  0  0  0  0
   98.8372   45.2968   75.2151 C   0  0  0  0  0  0  0  0  0  0  0  0
   90.6381   47.1781   70.9147 C   0  0  0  0  0  0  0  0  0  0  0  0
   97.5595   51.0522   73.3525 C   0  0  0  0  0  0  0  0  0  0  0  0
   97.9878   52.3089   73.0412 C   0  0  0  0  0  0  0  0  0  0  0  0
   96.3343   50.5007   72.8612 C   0  0  0  0  0  0  0  0  0  0  0  0
   95.5686   51.3052   72.0360 N   0  0  0  0  0  0  0  0  0  0  0  0
   97.4141   48.8833   74.2345 C   0  0  0  0  0  0  0  0  0  0  0  0
   99.2874   44.6470   76.0613 O   0  0  0  0  0  0  0  0  0  0  0  0
   96.8158   46.6423   74.9076 C   0  0  0  0  0  0  0  0  0  0  0  0
   98.6538   45.4402   74.0188 O   0  0  0  0  0  0  0  0  0  0  0  0
   96.2781   46.6301   76.1301 O   0  0  0  0  0  0  0  0  0  0  0  0
   91.8193   45.5383   73.7437 O   0  0  0  0  0  0  0  0  0  0  0  0
   93.9238   47.5150   72.8100 N   0  0  0  0  0  0  0  0  0  0  0  0
   98.2393   50.1302   74.1792 C   0  0  0  0  0  0  0  0  0  0  0  0
   91.2751   45.8859   72.7058 C   0  0  0  0  0  0  0  0  0  0  0  0
   94.7143   48.6971   72.6753 C   0  0  0  0  0  0  0  0  0  0  0  0
   94.0158   49.5536   71.7963 C   0  0  0  0  0  0  0  0  0  0  0  0
   96.2874   47.5494   73.9672 C   0  0  0  0  0  0  0  0  0  0  0  0
   92.0340   50.2654   69.5159 Cl  0  0  0  0  0  0  0  0  0  0  0  0
   92.7179   47.7043   72.0396 C   0  0  0  0  0  0  0  0  0  0  0  0
   94.3891   50.8992   71.4261 C   0  0  0  0  0  0  0  0  0  0  0  0
   96.1237   48.9821   73.3940 C   0  0  0  0  0  0  0  0  0  0  0  0
   90.8238   48.2886   70.1309 N   0  0  0  0  0  0  0  0  0  0  0  0
   91.8690   49.1837   70.3110 C   0  0  0  0  0  0  0  0  0  0  0  0
   89.2655   44.5751   72.8001 N   0  0  0  0  0  0  0  0  0  0  0  0
   89.9550   45.3842   72.1443 C   0  0  0  0  0  0  0  0  0  0  0  0
   92.7909   48.8790   71.3193 C   0  0  0  0  0  0  0  0  0  0  0  0
   91.5990   46.9293   71.9002 C   0  0  0  0  0  0  0  0  0  0  0  0
   89.6661   46.1472   71.0864 N   0  0  0  0  0  0  0  0  0  0  0  0
  1  2  1  0
  1 10  1  0
  2  9  2  0
  2 11  1  0
  3 24  1  0
  3 29  1  0
  3 30  2  0
  4  5  2  0
  4  6  1  0
  4 15  1  0
  6  7  2  0
  6 23  1  0
  7 22  1  0
  8 15  1  0
  8 23  1  0
 10 12  1  0
 10 19  1  0
 13 16  2  0
 14 17  1  0
 14 21  1  0
 16 27  1  0
 16 29  1  0
 17 18  1  0
 17 23  1  0
 18 22  1  0
 18 28  2  0
 19 23  1  0
 20 25  1  0
 21 28  1  0
 21 29  2  0
 24 25  2  0
 25 28  1  0
 26 27  2  0
 27 30  1  0
M  END
>  <ID>  (1) 
conformer_0

$$$$
