
     RDKit          3D

 21 23  0  0  0  0  0  0  0  0999 V2000
   91.1108   47.7290   70.3345 C   0  0  0  0  0  0  0  0  0  0  0  0
   96.3296   49.5260   73.4668 C   0  0  0  0  0  0  0  0  0  0  0  0
   94.7668   46.0025   73.5048 O   0  0  0  0  0  0  0  0  0  0  0  0
   89.0720   46.5897   70.1528 O   0  0  0  0  0  0  0  0  0  0  0  0
   92.8214   46.7226   71.7309 C   0  0  0  0  0  0  0  0  0  0  0  0
   94.8834   49.3627   71.5789 C   0  0  0  0  0  0  0  0  0  0  0  0
   94.2361   46.6710   72.2957 C   0  0  0  0  0  0  0  0  0  0  0  0
   97.1054   45.3115   75.6198 O   0  0  0  0  0  0  0  0  0  0  0  0
   95.8791   48.0737   73.4291 C   0  0  0  0  0  0  0  0  0  0  0  0
   96.4813   46.3226   75.3163 C   0  0  0  0  0  0  0  0  0  0  0  0
   92.2407   44.7584   72.8070 O   0  0  0  0  0  0  0  0  0  0  0  0
   96.3589   51.4197   71.8925 C   0  0  0  0  0  0  0  0  0  0  0  0
   95.0007   47.9438   72.1696 C   0  0  0  0  0  0  0  0  0  0  0  0
   90.2441   46.6678   70.6337 C   0  0  0  0  0  0  0  0  0  0  0  0
   90.6758   45.6796   71.4460 N   0  0  0  0  0  0  0  0  0  0  0  0
   97.5259   49.9014   74.2254 C   0  0  0  0  0  0  0  0  0  0  0  0
   91.9223   45.6956   72.0258 C   0  0  0  0  0  0  0  0  0  0  0  0
   96.0864   46.5872   73.8845 C   0  0  0  0  0  0  0  0  0  0  0  0
   95.6149   50.3104   72.4870 C   0  0  0  0  0  0  0  0  0  0  0  0
   96.0747   47.1262   76.2073 O   0  0  0  0  0  0  0  0  0  0  0  0
   92.3730   47.7277   70.8867 C   0  0  0  0  0  0  0  0  0  0  0  0
  1 14  1  0
  1 21  2  0
  2  9  1  0
  2 16  1  0
  2 19  1  0
  3  7  1  0
  3 18  1  0
  4 14  2  0
  5  7  1  0
  5 17  1  0
  5 21  1  0
  6 13  1  0
  6 19  1  0
  7 13  1  0
  8 10  2  0
  9 13  1  0
  9 18  1  0
 10 18  1  0
 10 20  1  0
 11 17  2  0
 12 19  1  0
 14 15  1  0
 15 17  1  0
M  END
>  <ID>  (1) 
conformer_0

$$$$
