
     RDKit          3D

 31 33  0  0  0  0  0  0  0  0999 V2000
   93.8493   47.5433   72.5483 C   0  0  0  0  0  0  0  0  0  0  0  0
   94.6435   48.7546   72.2134 C   0  0  0  0  0  0  0  0  0  0  0  0
   99.1525   44.6064   75.0239 O   0  0  0  0  0  0  0  0  0  0  0  0
   92.5509   47.9116   70.5392 C   0  0  0  0  0  0  0  0  0  0  0  0
   90.5378   46.6654   70.1673 C   0  0  0  0  0  0  0  0  0  0  0  0
   94.0997   46.6638   73.5441 O   0  0  0  0  0  0  0  0  0  0  0  0
   97.2603   45.3290   75.9313 O   0  0  0  0  0  0  0  0  0  0  0  0
   92.7270   47.2319   71.7819 C   0  0  0  0  0  0  0  0  0  0  0  0
   97.8252   46.1473   73.7496 C   0  0  0  0  0  0  0  0  0  0  0  0
   90.0577   45.2360   73.9484 C   0  0  0  0  0  0  0  0  0  0  0  0
   97.4457   50.3028   75.0499 O   0  0  0  0  0  0  0  0  0  0  0  0
   98.0040   45.3964   74.9426 C   0  0  0  0  0  0  0  0  0  0  0  0
   89.8342   44.7929   71.5611 C   0  0  0  0  0  0  0  0  0  0  0  0
   94.5114   49.2812   70.9630 C   0  0  0  0  0  0  0  0  0  0  0  0
   95.7026   49.5325   73.1827 C   0  0  0  0  0  0  0  0  0  0  0  0
   91.4513   47.6328   69.7593 C   0  0  0  0  0  0  0  0  0  0  0  0
   93.5100   48.9142   70.0959 C   0  0  0  0  0  0  0  0  0  0  0  0
   96.3263   51.9968   73.7207 C   0  0  0  0  0  0  0  0  0  0  0  0
   89.0377   45.0734   72.7373 O   0  0  0  0  0  0  0  0  0  0  0  0
   93.3983   49.4185   68.9042 O   0  0  0  0  0  0  0  0  0  0  0  0
   96.1322   50.5866   74.4114 C   0  0  0  0  0  0  0  0  0  0  0  0
   96.1932   51.6908   72.2372 N   0  0  0  0  0  0  0  0  0  0  0  0
   96.8877   47.1003   73.3159 C   0  0  0  0  0  0  0  0  0  0  0  0
   91.8086   46.3117   72.1494 C   0  0  0  0  0  0  0  0  0  0  0  0
   99.9927   44.9386   76.1435 C   0  0  0  0  0  0  0  0  0  0  0  0
   96.5709   50.2487   72.0435 C   0  0  0  0  0  0  0  0  0  0  0  0
   90.7468   45.9595   71.3595 C   0  0  0  0  0  0  0  0  0  0  0  0
   95.7457   48.1177   75.3532 O   0  0  0  0  0  1  0  0  0  0  0  0
   96.1181   48.2081   74.0765 S   0  0  0  0  0  3  0  0  0  0  0  0
   90.6659   43.8501   74.1004 C   0  0  0  0  0  0  0  0  0  0  0  0
   97.5529   53.0334   73.6295 C   0  0  0  0  0  0  0  0  0  0  0  0
  1  2  1  0
  1  6  1  0
  1  8  1  0
  2 14  1  0
  2 15  1  0
  3 12  1  0
  3 25  1  0
  4  8  2  0
  4 16  1  0
  4 17  1  0
  5 16  2  0
  5 27  1  0
  7 12  2  0
  8 24  1  0
  9 12  1  0
  9 23  1  0
 10 19  1  0
 10 30  1  0
 11 21  1  0
 13 19  1  0
 13 27  1  0
 14 17  2  0
 15 21  1  0
 15 26  1  0
 15 29  1  0
 17 20  1  0
 18 21  1  0
 18 22  1  0
 18 31  1  0
 22 26  1  0
 23 29  1  0
 24 27  2  0
 28 29  2  0
M  END
>  <ID>  (1) 
conformer_0

$$$$
