
     RDKit          3D

 25 27  0  0  0  0  0  0  0  0999 V2000
   91.8035   44.7153   72.1750 C   0  0  0  0  0  0  0  0  0  0  0  0
  100.7100   46.4858   76.9087 O   0  0  0  0  0  1  0  0  0  0  0  0
   92.4828   46.1214   72.1555 C   0  0  0  0  0  0  0  0  0  0  0  0
   93.2835   51.1654   71.3790 C   0  0  0  0  0  0  0  0  0  0  0  0
   96.5001   46.8271   73.2338 C   0  0  0  0  0  0  0  0  0  0  0  0
   98.3211   46.8474   76.1776 O   0  0  0  0  0  0  0  0  0  0  0  0
   93.1122   49.8105   70.7831 C   0  0  0  0  0  0  0  0  0  0  0  0
   94.2875   46.9037   73.5643 C   0  0  0  0  0  0  0  0  0  0  0  0
   99.2142   44.5104   76.3219 O   0  0  0  0  0  0  0  0  0  0  0  0
   99.6530   45.9325   75.9947 P   0  0  0  0  0  4  0  0  0  0  0  0
   91.1167   47.5598   70.7946 C   0  0  0  0  0  0  0  0  0  0  0  0
   95.4183   47.9512   73.3628 C   0  0  0  0  0  0  0  0  0  0  0  0
   90.4330   44.8350   72.8873 C   0  0  0  0  0  0  0  0  0  0  0  0
   96.7547   48.6658   75.3547 C   0  0  0  0  0  0  0  0  0  0  0  0
  100.1843   45.9636   74.5545 O   0  0  0  0  0  0  0  0  0  0  0  0
   92.3733   47.5009   71.6244 N   0  0  0  0  0  0  0  0  0  0  0  0
   96.2068   49.1324   73.9679 C   0  0  0  0  0  0  0  0  0  0  0  0
   90.1800   46.2769   70.6848 C   0  0  0  0  0  0  0  0  0  0  0  0
   97.8617   47.6862   75.1299 C   0  0  0  0  0  0  0  0  0  0  0  0
   97.8309   47.2258   73.6885 C   0  0  0  0  0  0  0  0  0  0  0  0
   94.5296   49.1934   72.7713 C   0  0  0  0  0  0  0  0  0  0  0  0
   93.7386   49.3420   69.6567 O   0  0  0  0  0  0  0  0  0  0  0  0
   89.5481   45.7269   71.9974 C   0  0  0  0  0  0  0  0  0  0  0  0
   93.9136   45.9110   72.5695 O   0  0  0  0  0  0  0  0  0  0  0  0
   93.2665   48.7267   71.8828 C   0  0  0  0  0  0  0  0  0  0  0  0
  1  3  1  0
  1 13  1  0
  2 10  2  0
  3 16  1  0
  3 24  1  0
  4  7  1  0
  5 12  1  0
  5 20  1  0
  6 10  1  0
  6 19  1  0
  7 22  1  0
  7 25  1  0
  8 12  1  0
  8 24  1  0
  9 10  1  0
 10 15  1  0
 11 16  1  0
 11 18  1  0
 12 17  1  0
 12 21  1  0
 13 23  1  0
 14 17  1  0
 14 19  1  0
 16 25  1  0
 18 23  1  0
 19 20  1  0
 21 25  1  0
M  END
>  <ID>  (1) 
conformer_0

$$$$
