
     RDKit          3D

 27 29  0  0  0  0  0  0  0  0999 V2000
   99.3438   46.6186   73.7456 C   0  0  0  0  0  0  0  0  0  0  0  0
   96.0100   49.4389   72.8250 C   0  0  0  0  0  0  0  0  0  0  0  0
   99.1953   45.4003   74.5890 C   0  0  0  0  0  0  0  0  0  0  0  0
   92.7762   48.8149   69.3559 C   0  0  0  0  0  0  0  0  0  0  0  0
   95.8444   51.4455   74.2383 C   0  0  0  0  0  0  0  0  0  0  0  0
   98.1216   46.7871   72.8273 C   0  0  0  0  0  0  0  0  0  0  0  0
   93.0530   47.7882   70.3953 C   0  0  0  0  0  0  0  0  0  0  0  0
   96.8848   47.1302   73.6381 C   0  0  0  0  0  0  0  0  0  0  0  0
   93.4375   50.0423   69.8106 O   0  0  0  0  0  0  0  0  0  0  0  0
   96.8660   46.4322   74.9600 C   0  0  0  0  0  0  0  0  0  0  0  0
   90.1463   44.0748   73.4215 N   0  0  0  0  0  0  0  0  0  0  0  0
   95.4003   49.3047   75.2290 O   0  0  0  0  0  0  0  0  0  0  0  0
   92.6841   46.3860   72.5057 C   0  0  0  0  0  0  0  0  0  0  0  0
   96.1125   46.7017   75.9787 O   0  0  0  0  0  0  0  0  0  0  0  0
   96.3381   51.6203   71.8797 C   0  0  0  0  0  0  0  0  0  0  0  0
   97.7910   45.2451   75.1207 C   0  0  0  0  0  0  0  0  0  0  0  0
   92.2092   46.9810   71.3575 C   0  0  0  0  0  0  0  0  0  0  0  0
   95.0663   47.1768   71.8211 C   0  0  0  0  0  0  0  0  0  0  0  0
   90.2845   45.6905   71.7164 N   0  0  0  0  0  0  0  0  0  0  0  0
   90.8944   46.6743   71.0193 C   0  0  0  0  0  0  0  0  0  0  0  0
   92.1069   45.4422   73.2265 N   0  0  0  0  0  0  0  0  0  0  0  0
   96.2821   50.2709   71.7534 N   0  0  0  0  0  0  0  0  0  0  0  0
   94.3815   47.9792   70.8330 N   0  0  0  0  0  0  0  0  0  0  0  0
   95.7472   50.0591   74.1079 C   0  0  0  0  0  0  0  0  0  0  0  0
   90.8665   45.0858   72.7881 C   0  0  0  0  0  0  0  0  0  0  0  0
   95.9849   47.9246   72.6919 C   0  0  0  0  0  0  0  0  0  0  0  0
   96.1082   52.2352   73.0953 C   0  0  0  0  0  0  0  0  0  0  0  0
  1  3  1  0
  1  6  1  0
  2 22  2  0
  2 24  1  0
  2 26  1  0
  3 16  1  0
  4  7  1  0
  4  9  1  0
  5 24  2  0
  5 27  1  0
  6  8  1  0
  7 17  1  0
  7 23  1  0
  8 10  1  0
  8 26  1  0
 10 14  1  0
 10 16  1  0
 11 25  2  0
 12 24  1  0
 13 17  2  0
 13 21  1  0
 15 22  1  0
 15 27  2  0
 17 20  1  0
 18 23  1  0
 18 26  1  0
 19 20  2  0
 19 25  1  0
 21 25  1  0
M  END
>  <ID>  (1) 
conformer_0

$$$$
