
     RDKit          3D

 31 31  0  0  0  0  0  0  0  0999 V2000
   96.4927   47.1646   74.1662 C   0  0  0  0  0  0  0  0  0  0  0  0
   92.6770   45.4249   72.5675 C   0  0  0  0  0  0  0  0  0  0  0  0
   95.7709   46.7741   75.3292 O   0  0  0  0  0  0  0  0  0  0  0  0
   91.4099   48.3816   70.9049 C   0  0  0  0  0  0  0  0  0  0  0  0
   99.9749   45.8745   77.1173 O   0  0  0  0  0  1  0  0  0  0  0  0
   91.7372   46.2879   71.9409 C   0  0  0  0  0  0  0  0  0  0  0  0
   95.2532   50.6324   73.8214 C   0  0  0  0  0  0  0  0  0  0  0  0
   93.4805   48.0034   72.0589 C   0  0  0  0  0  0  0  0  0  0  0  0
   90.3433   47.8554   70.1624 C   0  0  0  0  0  0  0  0  0  0  0  0
   94.2948   48.7459   72.8242 O   0  0  0  0  0  0  0  0  0  0  0  0
   97.9533   44.7600   76.0505 O   0  0  0  0  0  0  0  0  0  0  0  0
   99.4040   48.6040   76.3688 O   0  0  0  0  0  1  0  0  0  0  0  0
   92.1496   47.5753   71.7329 N   0  0  0  0  0  0  0  0  0  0  0  0
   94.1046   50.1590   72.9253 C   0  0  0  0  0  0  0  0  0  0  0  0
   98.5636   48.9667   75.2070 P   0  0  0  0  0  0  0  0  0  0  0  0
   89.8194   46.6644   70.5302 N   0  0  0  0  0  0  0  0  0  0  0  0
   90.4161   45.8806   71.4514 C   0  0  0  0  0  0  0  0  0  0  0  0
   99.3099   50.2550   74.6589 O   0  0  0  0  0  1  0  0  0  0  0  0
   95.3789   51.3065   71.3531 O   0  0  0  0  0  0  0  0  0  0  0  0
   89.8162   48.4949   69.0994 N   0  0  0  0  0  0  0  0  0  0  0  0
   93.5498   45.8639   73.4863 O   0  0  0  0  0  0  0  0  0  0  0  0
   95.6439   48.2837   73.3958 C   0  0  0  0  0  0  0  0  0  0  0  0
   96.3467   49.5796   73.7847 C   0  0  0  0  0  0  0  0  0  0  0  0
   99.3348   45.3523   75.8338 P   0  0  0  0  0  4  0  0  0  0  0  0
   97.0362   49.4171   75.1193 O   0  0  0  0  0  0  0  0  0  0  0  0
   93.1441   50.9527   70.9153 O   0  0  0  0  0  0  0  0  0  0  0  0
  100.1911   44.2353   75.1900 O   0  0  0  0  0  0  0  0  0  0  0  0
   89.7954   44.8812   71.9167 O   0  0  0  0  0  0  0  0  0  0  0  0
   94.2196   50.8210   71.5716 C   0  0  0  0  0  0  0  0  0  0  0  0
   99.1370   46.5335   74.7546 O   0  0  0  0  0  0  0  0  0  0  0  0
   98.0225   47.3839   74.3667 C   0  0  0  0  0  0  0  0  0  0  0  0
  1  3  1  0
  1 22  1  0
  1 31  1  0
  2  6  1  0
  2 21  1  0
  4  9  1  0
  4 13  1  0
  5 24  2  0
  6 13  1  0
  6 17  1  0
  7 14  1  0
  7 23  1  0
  8 10  1  0
  8 13  1  0
  9 16  1  0
  9 20  2  0
 10 14  1  0
 11 24  1  0
 12 15  1  0
 14 29  1  0
 15 18  1  0
 15 25  1  0
 16 17  1  0
 17 28  2  0
 19 29  2  0
 22 23  1  0
 23 25  1  0
 24 27  1  0
 24 30  1  0
 26 29  1  0
 30 31  1  0
M  END
>  <ID>  (1) 
conformer_0

$$$$
