
     RDKit          3D

 24 25  0  0  0  0  0  0  0  0999 V2000
   90.7172   46.7327   69.1649 C   0  0  0  0  0  0  0  0  0  0  0  0
   97.3117   45.1263   75.1350 O   0  0  0  0  0  1  0  0  0  0  0  0
   89.9791   47.4161   70.3916 C   0  0  0  0  0  0  0  0  0  0  0  0
   95.9115   46.9348   76.3601 O   0  0  0  0  0  0  0  0  0  0  0  0
   98.4419   47.1984   76.0966 O   0  0  0  0  0  0  0  0  0  0  0  0
   96.0886   50.4741   72.4637 C   0  0  0  0  0  0  0  0  0  0  0  0
   94.5704   46.7021   72.4386 P   0  0  0  0  0  4  0  0  0  0  0  0
   95.2979   48.1412   73.0855 C   0  0  0  0  0  0  0  0  0  0  0  0
   92.1648   45.6368   72.2098 C   0  0  0  0  0  0  0  0  0  0  0  0
   94.8142   45.6053   73.3496 O   0  0  0  0  0  1  0  0  0  0  0  0
   90.6765   45.9805   72.3954 C   0  0  0  0  0  0  0  0  0  0  0  0
   92.9912   46.9389   72.4970 N   0  0  0  0  0  0  0  0  0  0  0  0
   90.8989   45.5541   69.9837 O   0  0  0  0  0  0  0  0  0  0  0  0
   96.4928   47.7182   73.9219 C   0  0  0  0  0  0  0  0  0  0  0  0
   89.9513   46.0511   71.0993 C   0  0  0  0  0  0  0  0  0  0  0  0
   97.3815   49.9163   74.5073 C   0  0  0  0  0  0  0  0  0  0  0  0
   96.0644   50.5379   74.0089 C   0  0  0  0  0  0  0  0  0  0  0  0
   96.1571   51.7332   71.9546 O   0  0  0  0  0  0  0  0  0  0  0  0
   97.5604   48.6018   73.7714 O   0  0  0  0  0  0  0  0  0  0  0  0
   95.1180   46.5831   71.1026 O   0  0  0  0  0  0  0  0  0  0  0  0
   97.1162   46.6516   75.4534 P   0  0  0  0  0  4  0  0  0  0  0  0
   95.7025   51.6930   74.6302 O   0  0  0  0  0  0  0  0  0  0  0  0
   93.7406   49.8438   72.2448 O   0  0  0  0  0  0  0  0  0  0  0  0
   95.1458   49.3167   72.0163 C   0  0  0  0  0  0  0  0  0  0  0  0
  1  3  1  0
  1 13  1  0
  2 21  2  0
  3 15  1  0
  4 21  1  0
  5 21  1  0
  6 17  1  0
  6 18  1  0
  6 24  1  0
  7  8  1  0
  7 10  2  0
  7 12  1  0
  7 20  1  0
  8 14  1  0
  8 24  1  0
  9 11  1  0
  9 12  1  0
 11 15  1  0
 13 15  1  0
 14 19  1  0
 14 21  1  0
 16 17  1  0
 16 19  1  0
 17 22  1  0
 23 24  1  0
M  END
>  <ID>  (1) 
conformer_0

$$$$
