
     RDKit          3D

 23 24  0  0  0  0  0  0  0  0999 V2000
   95.9753   51.9414   73.7714 C   0  0  0  0  0  0  0  0  0  0  0  0
   95.0239   46.6007   74.4768 O   0  0  0  0  0  0  0  0  0  0  0  0
   91.9233   45.5208   72.6287 C   0  0  0  0  0  0  0  0  0  0  0  0
   96.4252   46.3295   74.4209 C   0  0  0  0  0  0  0  0  0  0  0  0
   89.9967   46.4159   70.3173 C   0  0  0  0  0  0  0  0  0  0  0  0
   99.8615   44.2456   74.6862 O   0  0  0  0  0  0  0  0  0  0  0  0
   98.0015   45.1545   75.7204 N   0  0  0  0  0  0  0  0  0  0  0  0
   94.0547   46.8305   72.3944 C   0  0  0  0  0  0  0  0  0  0  0  0
   91.0900   47.3079   70.2383 C   0  0  0  0  0  0  0  0  0  0  0  0
   98.8433   45.0507   74.6070 C   0  0  0  0  0  0  0  0  0  0  0  0
   92.6638   46.5647   72.0247 C   0  0  0  0  0  0  0  0  0  0  0  0
   94.9498   49.7999   71.4216 C   0  0  0  0  0  0  0  0  0  0  0  0
   95.4834   49.7620   72.8399 C   0  0  0  0  0  0  0  0  0  0  0  0
   96.5680   50.7350   73.0099 C   0  0  0  0  0  0  0  0  0  0  0  0
   92.1715   47.2952   70.9812 C   0  0  0  0  0  0  0  0  0  0  0  0
   94.5051   47.5748   73.6068 C   0  0  0  0  0  0  0  0  0  0  0  0
   89.8901   45.4011   71.2136 N   0  0  0  0  0  0  0  0  0  0  0  0
   97.3032   46.4083   73.3243 C   0  0  0  0  0  0  0  0  0  0  0  0
   90.7365   45.0998   72.1966 C   0  0  0  0  0  0  0  0  0  0  0  0
   95.4024   48.7519   73.7921 O   0  0  0  0  0  0  0  0  0  0  0  0
   96.2071   52.0354   72.3339 C   0  0  0  0  0  0  0  0  0  0  0  0
   98.5385   45.7727   73.4101 C   0  0  0  0  0  0  0  0  0  0  0  0
   96.8415   45.8060   75.6438 C   0  0  0  0  0  0  0  0  0  0  0  0
  1 21  1  0
  2  4  1  0
  2 16  1  0
  3 11  2  0
  3 19  1  0
  4 18  1  0
  4 23  1  0
  5  9  1  0
  5 17  1  0
  6 10  2  0
  7 10  1  0
  7 23  2  0
  8 11  1  0
  8 16  1  0
  9 15  2  0
 10 22  1  0
 11 15  1  0
 12 13  1  0
 13 14  1  0
 13 20  1  0
 14 21  1  0
 16 20  1  0
 17 19  2  0
 18 22  2  0
M  END
>  <ID>  (1) 
conformer_0

$$$$
