
     RDKit          3D

 31 33  0  0  0  0  0  0  0  0999 V2000
   93.9554   50.1905   71.1561 N   0  0  0  0  0  0  0  0  0  0  0  0
   92.5897   50.8289   70.7992 C   0  0  0  0  0  0  0  0  0  0  0  0
   95.6482   48.7794   72.6755 C   0  0  0  0  0  0  0  0  0  0  0  0
   97.5913   45.1243   74.8759 O   0  0  0  0  0  0  0  0  0  0  0  0
   93.7703   48.7224   70.5938 C   0  0  0  0  0  0  0  0  0  0  0  0
   91.3977   46.1386   72.4495 C   0  0  0  0  0  0  0  0  0  0  0  0
   90.7903   47.6299   70.7094 N   0  0  0  0  0  0  0  0  0  0  0  0
   99.8880   44.9539   74.9564 O   0  0  0  0  0  0  0  0  0  0  0  0
   97.1825   46.6554   75.4633 P   0  0  0  0  0  0  0  0  0  0  0  0
   95.8457   46.7902   76.0404 O   0  0  0  0  0  0  0  0  0  0  0  0
   95.3224   47.3406   72.1970 C   0  0  0  0  0  0  0  0  0  0  0  0
   91.8987   51.3433   71.8098 O   0  0  0  0  0  0  0  0  0  0  0  0
   92.0651   45.6918   73.4602 O   0  0  0  0  0  0  0  0  0  0  0  0
   95.6179   52.3159   71.9835 O   0  0  0  0  0  0  0  0  0  0  0  0
   90.1122   45.4730   72.1191 C   0  0  0  0  0  0  0  0  0  0  0  0
   97.0185   49.9136   74.3085 C   0  0  0  0  0  0  0  0  0  0  0  0
   89.7098   46.9545   70.4370 C   0  0  0  0  0  0  0  0  0  0  0  0
   91.6679   47.2174   71.6813 N   0  0  0  0  0  0  0  0  0  0  0  0
   98.3634   47.0370   76.3726 O   0  0  0  0  0  0  0  0  0  0  0  0
   96.6407   48.7361   73.6938 C   0  0  0  0  0  0  0  0  0  0  0  0
   98.8862   45.4615   74.1374 C   0  0  0  0  0  0  0  0  0  0  0  0
   94.0301   46.7019   71.8940 C   0  0  0  0  0  0  0  0  0  0  0  0
   98.4312   46.7024   73.2188 C   0  0  0  0  0  0  0  0  0  0  0  0
   89.4050   45.8848   71.1298 N   0  0  0  0  0  0  0  0  0  0  0  0
   96.6183   51.1557   73.8095 C   0  0  0  0  0  0  0  0  0  0  0  0
   89.7260   44.4075   72.8323 N   0  0  0  0  0  0  0  0  0  0  0  0
   95.1497   50.0259   72.1906 C   0  0  0  0  0  0  0  0  0  0  0  0
   93.0243   47.8441   71.6413 C   0  0  0  0  0  0  0  0  0  0  0  0
   95.7877   51.1862   72.6605 C   0  0  0  0  0  0  0  0  0  0  0  0
   97.3180   47.4527   73.9277 N   0  0  0  0  0  0  0  0  0  0  0  0
   92.0390   50.5499   69.6844 O   0  0  0  0  0  0  0  0  0  0  0  0
  1  2  1  0
  1  5  1  0
  1 27  1  0
  2 12  2  0
  2 31  1  0
  3 11  1  0
  3 20  2  0
  3 27  1  0
  4 21  2  0
  5 28  1  0
  6 13  2  0
  6 15  1  0
  6 18  1  0
  7 17  1  0
  7 18  1  0
  8 21  1  0
  9 10  1  0
  9 19  1  0
  9 30  1  0
 11 22  1  0
 14 29  1  0
 15 24  1  0
 15 26  2  0
 16 20  1  0
 16 25  2  0
 17 24  2  0
 18 28  1  0
 20 30  1  0
 21 23  1  0
 22 28  1  0
 23 30  1  0
 25 29  1  0
 27 29  2  0
M  END
>  <ID>  (1) 
conformer_0

$$$$
