
     RDKit          3D

 28 29  0  0  0  0  0  0  0  0999 V2000
   97.6128   46.1305   73.4941 C   0  0  0  0  0  0  0  0  0  0  0  0
   93.9045   47.6128   70.7536 C   0  0  0  0  0  0  0  0  0  0  0  0
   96.6580   48.3098   74.0208 C   0  0  0  0  0  0  0  0  0  0  0  0
   95.0407   46.8962   75.0696 O   0  0  0  0  0  0  0  0  0  0  0  0
   90.5953   46.3804   69.8160 N   0  0  0  0  0  0  0  0  0  0  0  0
   97.5990   47.5796   72.9528 C   0  0  0  0  0  0  0  0  0  0  0  0
   96.6650   51.4332   71.8908 C   0  0  0  0  0  0  0  0  0  0  0  0
   93.0408   46.1700   72.5495 C   0  0  0  0  0  0  0  0  0  0  0  0
   96.1891   49.5598   73.3114 C   0  0  0  0  0  0  0  0  0  0  0  0
   99.7279   46.2364   76.8287 O   0  0  0  0  0  1  0  0  0  0  0  0
   90.7010   45.1179   72.4232 C   0  0  0  0  0  0  0  0  0  0  0  0
   98.8630   45.4506   75.7662 P   0  0  0  0  0  4  0  0  0  0  0  0
   91.6991   46.6125   70.6382 C   0  0  0  0  0  0  0  0  0  0  0  0
   97.0521   50.2178   72.4261 C   0  0  0  0  0  0  0  0  0  0  0  0
   95.4126   51.9371   72.2255 C   0  0  0  0  0  0  0  0  0  0  0  0
   94.8883   49.9991   73.5869 C   0  0  0  0  0  0  0  0  0  0  0  0
   99.5007   44.1092   75.5042 O   0  0  0  0  0  0  0  0  0  0  0  0
   91.8440   45.9628   71.9405 C   0  0  0  0  0  0  0  0  0  0  0  0
   97.4061   45.3589   76.2731 O   0  0  0  0  0  0  0  0  0  0  0  0
   95.4637   47.3318   74.0259 C   0  0  0  0  0  0  0  0  0  0  0  0
   89.4961   45.2345   72.0168 O   0  0  0  0  0  0  0  0  0  0  0  0
   92.7192   47.4606   70.1072 C   0  0  0  0  0  0  0  0  0  0  0  0
   94.5156   51.2359   73.0577 C   0  0  0  0  0  0  0  0  0  0  0  0
   95.2563   47.0128   72.6692 N   0  0  0  0  0  0  0  0  0  0  0  0
   98.8987   46.1684   74.2354 C   0  0  0  0  0  0  0  0  0  0  0  0
   90.9691   44.1707   73.4133 N   0  0  0  0  0  0  0  0  0  0  0  0
   99.9623   46.6524   73.3443 C   0  0  0  0  0  0  0  0  0  0  0  0
   94.0510   46.9346   71.9875 C   0  0  0  0  0  0  0  0  0  0  0  0
  1  6  1  0
  1 25  1  0
  2 22  2  0
  2 28  1  0
  3  6  1  0
  3  9  1  0
  3 20  1  0
  4 20  2  0
  5 13  1  0
  7 14  2  0
  7 15  1  0
  8 18  2  0
  8 28  1  0
  9 14  1  0
  9 16  2  0
 10 12  2  0
 11 18  1  0
 11 21  2  0
 11 26  1  0
 12 17  1  0
 12 19  1  0
 12 25  1  0
 13 18  1  0
 13 22  1  0
 15 23  2  0
 16 23  1  0
 20 24  1  0
 24 28  1  0
 25 27  1  0
M  END
>  <ID>  (1) 
conformer_0

$$$$
