
     RDKit          3D

 19 18  0  0  0  0  0  0  0  0999 V2000
   91.0041   44.9760   71.3880 S   0  0  0  0  0  0  0  0  0  0  0  0
   94.6057   46.9689   74.4269 O   0  0  0  0  0  0  0  0  0  0  0  0
   98.7526   44.1616   74.6036 O   0  0  0  0  0  1  0  0  0  0  0  0
   98.0900   46.5864   74.3124 O   0  0  0  0  0  0  0  0  0  0  0  0
   90.9485   48.8857   69.9881 C   0  0  0  0  0  0  0  0  0  0  0  0
   99.2185   45.7730   76.5301 O   0  0  0  0  0  0  0  0  0  0  0  0
   94.7878   47.4739   73.3134 C   0  0  0  0  0  0  0  0  0  0  0  0
   97.3949   47.2722   73.3481 C   0  0  0  0  0  0  0  0  0  0  0  0
   98.2306   45.3774   75.3603 P   0  0  0  0  0  4  0  0  0  0  0  0
   96.8228   45.2169   75.9284 O   0  0  0  0  0  0  0  0  0  0  0  0
   92.2400   45.5099   72.4286 C   0  0  0  0  0  0  0  0  0  0  0  0
   96.8586   48.7063   73.8369 C   0  0  0  0  0  0  0  0  0  0  0  0
   95.4080   48.8316   73.1970 C   0  0  0  0  0  0  0  0  0  0  0  0
   90.7602   46.4353   70.4702 C   0  0  0  0  0  0  0  0  0  0  0  0
   94.3494   49.9719   73.2808 C   0  0  0  0  0  0  0  0  0  0  0  0
   94.4647   46.7965   72.1700 N   0  0  0  0  0  0  0  0  0  0  0  0
   91.8489   47.6929   70.5031 C   0  0  0  0  0  0  0  0  0  0  0  0
   93.4922   45.8939   71.7586 C   0  0  0  0  0  0  0  0  0  0  0  0
   93.3690   48.3341   70.2070 N   0  0  0  0  0  0  0  0  0  0  0  0
  1 11  1  0
  1 14  1  0
  2  7  2  0
  3  9  2  0
  4  8  1  0
  4  9  1  0
  5 17  1  0
  6  9  1  0
  7 13  1  0
  7 16  1  0
  8 12  1  0
  9 10  1  0
 11 18  1  0
 12 13  1  0
 13 15  1  0
 14 17  1  0
 16 18  2  3
 17 19  1  0
M  END
>  <ID>  (1) 
conformer_0

$$$$
