
     RDKit          3D

 35 37  0  0  0  0  0  0  0  0999 V2000
   92.4699   49.8222   70.8358 C   0  0  0  0  0  0  0  0  0  0  0  0
   91.5708   45.9187   70.7867 C   0  0  0  0  0  0  0  0  0  0  0  0
   93.9599   47.2228   70.3621 O   0  0  0  0  0  0  0  0  0  0  0  0
   96.5123   46.2452   74.4083 C   0  0  0  0  0  0  0  0  0  0  0  0
   98.8336   45.5757   73.7251 C   0  0  0  0  0  0  0  0  0  0  0  0
   95.6033   46.5644   73.2187 C   0  0  0  0  0  0  0  0  0  0  0  0
   97.1424   48.8615   75.0337 C   0  0  0  0  0  0  0  0  0  0  0  0
   90.7783   45.0053   72.7934 C   0  0  0  0  0  0  0  0  0  0  0  0
   96.3710   52.5620   73.7139 C   0  0  0  0  0  0  0  0  0  0  0  0
   91.9627   51.1948   71.2538 C   0  0  0  0  0  0  0  0  0  0  0  0
   93.3377   47.5454   71.6704 C   0  0  0  0  0  0  0  0  0  0  0  0
   97.8871   48.1657   73.7311 C   0  0  0  0  0  0  0  0  0  0  0  0
   89.2519   45.8146   71.1729 O   0  0  0  0  0  0  0  0  0  0  0  0
   95.8147   51.1039   73.5074 C   0  0  0  0  0  3  0  0  0  0  0  0
   97.9093   46.6739   74.0562 C   0  0  0  0  0  0  0  0  0  0  0  0
   94.8935   49.6182   71.2440 C   0  0  0  0  0  0  0  0  0  0  0  0
   98.4597   50.9051   73.2776 C   0  0  0  0  0  0  0  0  0  0  0  0
   91.6184   46.1656   73.0800 C   0  0  0  0  0  0  0  0  0  0  0  0
  100.2752   43.7440   74.8271 O   0  0  0  0  0  1  0  0  0  0  0  0
   96.3583   50.2381   74.7001 C   0  0  0  0  0  0  0  0  0  0  0  0
   97.9756   49.4366   72.7558 C   0  0  0  0  0  0  0  0  0  0  0  0
   96.2931   46.6786   72.0414 O   0  0  0  0  0  0  0  0  0  0  0  0
   90.6700   43.9050   73.5617 O   0  0  0  0  0  0  0  0  0  0  0  0
   99.0283   45.1384   76.4651 O   0  0  0  0  0  0  0  0  0  0  0  0
   95.1887   51.1165   71.9282 S   0  0  0  0  0  3  0  0  0  0  0  0
   97.9329   52.3732   73.6600 C   0  0  0  0  0  0  0  0  0  0  0  0
   96.1917   46.2172   75.6877 O   0  0  0  0  0  0  0  0  0  0  0  0
   93.4186   49.4260   73.1777 O   0  0  0  0  0  0  0  0  0  0  0  0
   94.0922   46.8611   72.8144 C   0  0  0  0  0  0  0  0  0  0  0  0
  100.9309   46.1789   75.1389 O   0  0  0  0  0  0  0  0  0  0  0  0
   93.5057   49.1343   71.7741 C   0  0  0  0  0  0  0  0  0  0  0  0
   91.8855   46.9722   71.8238 C   0  0  0  0  0  0  0  0  0  0  0  0
   90.4119   45.0098   71.3486 C   0  0  0  0  0  0  0  0  0  0  0  0
   99.8298   45.1404   75.1049 P   0  0  0  0  0  4  0  0  0  0  0  0
   93.9704   46.8019   74.1177 O   0  0  0  0  0  0  0  0  0  0  0  0
  1 10  1  0
  1 31  1  0
  2 32  1  0
  2 33  1  0
  3 11  1  0
  4  6  1  0
  4 15  1  0
  4 27  1  0
  5 15  1  0
  5 34  1  0
  6 22  1  0
  6 29  1  0
  7 12  1  0
  7 20  1  0
  8 18  1  0
  8 23  1  0
  8 33  1  0
  9 14  1  0
  9 26  1  0
 11 29  1  0
 11 31  1  0
 11 32  1  0
 12 15  1  0
 12 21  1  0
 13 33  1  0
 14 20  1  0
 14 25  2  0
 16 25  1  0
 16 31  1  0
 17 21  1  0
 17 26  2  0
 18 32  1  0
 19 34  2  0
 24 34  1  0
 28 31  1  0
 29 35  1  0
 30 34  1  0
M  END
>  <ID>  (1) 
conformer_0

$$$$
