
     RDKit          3D

 31 33  0  0  0  0  0  0  0  0999 V2000
   96.0282   50.3487   75.5869 O   0  0  0  0  0  0  0  0  0  0  0  0
   89.7307   46.2853   70.4385 N   0  0  0  0  0  0  0  0  0  0  0  0
   98.9100   46.5924   74.7207 O   0  0  0  0  0  0  0  0  0  0  0  0
  100.1087   46.5193   75.7892 P   0  0  0  0  0  0  0  0  0  0  0  0
   92.5529   45.5497   73.4918 O   0  0  0  0  0  0  0  0  0  0  0  0
  101.2776   46.2221   75.2664 O   0  0  0  0  0  1  0  0  0  0  0  0
   93.8413   50.3871   70.5262 O   0  0  0  0  0  0  0  0  0  0  0  0
   89.7647   48.2297   69.0315 N   0  0  0  0  0  0  0  0  0  0  0  0
   96.3210   50.2589   74.1182 C   0  0  0  0  0  0  0  0  0  0  0  0
   93.1816   49.4675   71.0113 C   0  0  0  0  0  0  0  0  0  0  0  0
   96.9867   45.2092   75.6909 O   0  0  0  0  0  1  0  0  0  0  0  0
   94.0704   51.0233   73.4091 O   0  0  0  0  0  0  0  0  0  0  0  0
   91.5805   46.7989   71.7035 C   0  0  0  0  0  0  0  0  0  0  0  0
   93.7181   48.5916   72.0320 N   0  0  0  0  0  0  0  0  0  0  0  0
   99.0765   44.1063   74.7787 O   0  0  0  0  0  0  0  0  0  0  0  0
   90.5006   45.8371   71.4220 C   0  0  0  0  0  0  0  0  0  0  0  0
   98.0948   45.2610   74.7932 P   0  0  0  0  0  4  0  0  0  0  0  0
   92.6465   46.4477   72.6093 C   0  0  0  0  0  0  0  0  0  0  0  0
   96.9364   51.6036   73.9127 O   0  0  0  0  0  0  0  0  0  0  0  0
   93.9353   47.2717   72.7158 C   0  0  0  0  0  0  0  0  0  0  0  0
   90.3192   44.6786   71.9887 N   0  0  0  0  0  0  0  0  0  0  0  0
   95.2057   50.3575   72.9760 C   0  0  0  0  0  0  0  0  0  0  0  0
   97.8989   48.3140   73.3462 C   0  0  0  0  0  0  0  0  0  0  0  0
   97.8512   46.7420   73.5429 C   0  0  0  0  0  0  0  0  0  0  0  0
   96.6154   48.7247   74.1031 C   0  0  0  0  0  0  0  0  0  0  0  0
   99.7063   46.4284   77.0899 O   0  0  0  0  0  1  0  0  0  0  0  0
   95.5968   47.9977   73.2086 O   0  0  0  0  0  0  0  0  0  0  0  0
   92.0204   49.0737   70.4966 O   0  0  0  0  0  0  0  0  0  0  0  0
   91.3590   47.8694   70.7490 C   0  0  0  0  0  0  0  0  0  0  0  0
   95.2507   49.0453   72.1779 C   0  0  0  0  0  0  0  0  0  0  0  0
   90.1833   47.5048   69.9774 C   0  0  0  0  0  0  0  0  0  0  0  0
  1  9  1  0
  2 16  1  0
  2 31  1  0
  3  4  1  0
  3 17  1  0
  4  6  1  0
  4 26  1  0
  5 18  2  0
  7 10  2  0
  8 31  2  0
  9 19  1  0
  9 22  1  0
  9 25  1  0
 10 14  1  0
 10 28  1  0
 11 17  2  0
 12 22  1  0
 13 16  1  0
 13 18  1  0
 13 29  2  0
 14 20  1  0
 14 30  1  0
 15 17  1  0
 16 21  2  0
 17 24  1  0
 18 20  1  0
 22 30  1  0
 23 24  1  0
 23 25  1  0
 25 27  1  0
 27 30  1  0
 28 29  1  0
 29 31  1  0
M  END
>  <ID>  (1) 
conformer_0

$$$$
