
     RDKit          3D

 21 22  0  0  0  0  0  0  0  0999 V2000
   98.3457   45.7040   75.6676 P   0  0  0  0  0  4  0  0  0  0  0  0
   99.1718   46.2282   76.8842 O   0  0  0  0  0  1  0  0  0  0  0  0
   90.1902   45.9410   70.6360 N   0  0  0  0  0  0  0  0  0  0  0  0
   93.7162   48.5320   72.0109 N   0  0  0  0  0  0  0  0  0  0  0  0
   98.5067   44.2089   75.4163 O   0  0  0  0  0  0  0  0  0  0  0  0
   91.2502   45.8108   71.5719 C   0  0  0  0  0  0  0  0  0  0  0  0
   90.4290   47.1501   70.0406 C   0  0  0  0  0  0  0  0  0  0  0  0
   93.6800   50.8540   72.3860 C   0  0  0  0  0  0  0  0  0  0  0  0
   96.1940   47.1627   75.3279 C   0  0  0  0  0  0  0  0  0  0  0  0
   96.7636   46.0335   75.9017 O   0  0  0  0  0  0  0  0  0  0  0  0
   93.3997   47.0868   72.1718 C   0  0  0  0  0  0  0  0  0  0  0  0
   95.8257   48.0547   74.2179 C   0  0  0  0  0  0  0  0  0  0  0  0
   95.9372   49.7012   72.5253 C   0  0  0  0  0  0  0  0  0  0  0  0
   96.1589   50.4510   71.4218 O   0  0  0  0  0  0  0  0  0  0  0  0
   92.1480   46.8387   71.4463 C   0  0  0  0  0  0  0  0  0  0  0  0
   91.6236   47.6675   70.4932 N   0  0  0  0  0  0  0  0  0  0  0  0
   94.4258   49.4854   72.9041 C   0  0  0  0  0  0  0  0  0  0  0  0
   97.4712   49.8717   75.1829 S   0  0  0  0  0  0  0  0  0  0  0  0
   96.7377   49.1846   73.6944 C   0  0  0  0  0  0  0  0  0  0  0  0
   94.5259   48.5637   74.2145 O   0  0  0  0  0  0  0  0  0  0  0  0
   98.7497   46.5080   74.3816 O   0  0  0  0  0  0  0  0  0  0  0  0
  1  2  2  0
  1  5  1  0
  1 10  1  0
  1 21  1  0
  3  6  1  0
  3  7  1  0
  4 11  1  0
  4 17  1  0
  6 15  1  0
  7 16  1  0
  8 17  1  0
  9 10  1  0
  9 12  1  0
 11 15  1  0
 12 19  1  0
 12 20  1  0
 13 14  1  0
 13 17  1  0
 13 19  1  0
 15 16  1  0
 17 20  1  0
 18 19  1  0
M  END
>  <ID>  (1) 
conformer_0

$$$$
