
     RDKit          3D

 33 35  0  0  0  0  0  0  0  0999 V2000
   92.9761   48.6859   70.9757 C   0  0  0  0  0  0  0  0  0  0  0  0
   99.6530   45.5133   75.7529 P   0  0  0  0  0  4  0  0  0  0  0  0
   95.6705   46.9256   74.0027 C   0  0  0  0  0  0  0  0  0  0  0  0
   96.9828   48.7945   73.9368 O   0  0  0  0  0  0  0  0  0  0  0  0
   95.7094   46.5292   75.2215 O   0  0  0  0  0  0  0  0  0  0  0  0
   96.8626   51.6592   73.6385 O   0  0  0  0  0  0  0  0  0  0  0  0
   99.6045   45.9209   77.1912 O   0  0  0  0  0  1  0  0  0  0  0  0
   94.5626   50.4547   71.2135 O   0  0  0  0  0  0  0  0  0  0  0  0
  101.0131   45.8421   75.1817 O   0  0  0  0  0  0  0  0  0  0  0  0
   99.3133   44.1032   75.3669 O   0  0  0  0  0  0  0  0  0  0  0  0
   98.5029   46.4178   74.9299 O   0  0  0  0  0  0  0  0  0  0  0  0
   90.9871   43.6192   72.9982 O   0  0  0  0  0  0  0  0  0  0  0  0
   94.1407   49.3095   71.6528 C   0  0  0  0  0  0  0  0  0  0  0  0
   89.6767   45.2211   72.1843 O   0  0  0  0  0  0  0  0  0  0  0  0
   91.3092   49.0956   69.2670 C   0  0  0  0  0  0  0  0  0  0  0  0
   92.7419   46.3005   72.1631 C   0  0  0  0  0  0  0  0  0  0  0  0
   92.2311   47.5140   71.3851 C   0  0  0  0  0  0  0  0  0  0  0  0
   98.0949   46.6271   73.6128 C   0  0  0  0  0  0  0  0  0  0  0  0
   95.8459   49.5482   73.5542 C   0  0  0  0  0  0  0  0  0  0  0  0
   92.5451   49.3746   69.8590 C   0  0  0  0  0  0  0  0  0  0  0  0
   94.7572   51.3935   74.4032 O   0  0  0  0  0  0  0  0  0  0  0  0
   90.9883   47.3688   70.8541 C   0  0  0  0  0  0  0  0  0  0  0  0
   90.5337   48.1071   69.8236 C   0  0  0  0  0  0  0  0  0  0  0  0
   95.8141   50.9519   73.9003 C   0  0  0  0  0  0  0  0  0  0  0  0
   90.7764   44.8449   72.6656 C   0  0  0  0  0  0  0  0  0  0  0  0
   89.3101   47.8310   69.3631 O   0  0  0  0  0  0  0  0  0  0  0  0
   96.9096   47.4850   73.3691 C   0  0  0  0  0  0  0  0  0  0  0  0
   94.9028   48.8268   72.7551 N   0  0  0  0  0  0  0  0  0  0  0  0
   99.4434   48.6311   74.0205 O   0  0  0  0  0  0  0  0  0  0  0  0
   94.2089   46.3754   72.1888 C   0  0  0  0  0  0  0  0  0  0  0  0
   94.5538   47.4725   73.1885 C   0  0  0  0  0  0  0  0  0  0  0  0
   91.8203   45.7020   73.0017 N   0  0  0  0  0  0  0  0  0  0  0  0
   99.0558   47.4593   74.3714 C   0  0  0  0  0  0  0  0  0  0  0  0
  1 13  1  0
  1 17  1  0
  1 20  1  0
  2  7  2  0
  2  9  1  0
  2 10  1  0
  2 11  1  0
  3  5  2  0
  3 27  1  0
  3 31  1  0
  4 19  1  0
  4 27  1  0
  6 24  2  0
  8 13  2  0
 11 33  1  0
 12 25  2  0
 13 28  1  0
 14 25  1  0
 15 20  2  0
 15 23  1  0
 16 17  1  0
 16 30  1  0
 16 32  1  0
 17 22  1  0
 18 27  1  0
 18 33  1  0
 19 24  1  0
 19 28  1  0
 21 24  1  0
 22 23  2  0
 23 26  1  0
 25 32  1  0
 28 31  1  0
 29 33  2  0
 30 31  1  0
M  END
>  <ID>  (1) 
conformer_0

$$$$
