
     RDKit          3D

 30 30  0  0  0  0  0  0  0  0999 V2000
   96.9470   48.9656   73.2322 O   0  0  0  0  0  0  0  0  0  0  0  0
   96.7777   50.2313   74.0552 C   0  0  0  0  0  0  0  0  0  0  0  0
   91.0073   45.3829   71.9533 C   0  0  0  0  0  0  0  0  0  0  0  0
   96.1143   48.5681   75.8143 O   0  0  0  0  0  0  0  0  0  0  0  0
   96.9272   48.7941   74.6680 S   0  0  0  0  0  4  0  0  0  0  0  0
   90.3972   44.4934   73.0138 C   0  0  0  0  0  0  0  0  0  0  0  0
   98.3204   48.2447   74.9648 O   0  0  0  0  0  0  0  0  0  0  0  0
   92.4108   47.3966   71.5127 C   0  0  0  0  0  0  0  0  0  0  0  0
   98.6842   47.0403   74.1961 C   0  0  0  0  0  0  0  0  0  0  0  0
   92.1263   44.5593   71.2593 C   0  0  0  0  0  0  0  0  0  0  0  0
   95.2047   50.5071   74.1954 C   0  0  0  0  0  0  0  0  0  0  0  0
   98.1363   45.7594   74.7919 C   0  0  0  0  0  0  0  0  0  0  0  0
   93.8442   47.6842   71.7063 C   0  0  0  0  0  0  0  0  0  0  0  0
   91.6087   47.4317   70.2485 C   0  0  0  0  0  0  0  0  0  0  0  0
   94.3098   47.0078   73.9476 O   0  0  0  0  0  0  0  0  0  0  0  0
   95.9132   50.7610   71.5916 O   0  0  0  0  0  0  0  0  0  0  0  0
   99.6116   43.9144   74.5250 O   0  0  0  0  0  0  0  0  0  0  0  0
   90.2310   46.8341   70.1477 C   0  0  0  0  0  0  0  0  0  0  0  0
   99.7921   45.0097   76.3787 O   0  0  0  0  0  0  0  0  0  0  0  0
   94.7777   50.0943   71.8488 C   0  0  0  0  0  0  0  0  0  0  0  0
   89.9366   45.7620   71.0068 O   0  0  0  0  0  0  0  0  0  0  0  0
   97.1165   45.6260   75.7661 N   0  0  0  0  0  0  0  0  0  0  0  0
   93.1025   48.7143   68.8210 O   0  0  0  0  0  0  0  0  0  0  0  0
   91.7051   46.5964   72.5467 C   0  0  0  0  0  0  0  0  0  0  0  0
   91.7746   48.6439   69.3720 C   0  0  0  0  0  0  0  0  0  0  0  0
   94.2547   48.0272   73.0974 C   0  0  0  0  0  0  0  0  0  0  0  0
   99.3237   44.8271   75.2852 C   0  0  0  0  0  0  0  0  0  0  0  0
   94.5398   49.5037   73.2174 C   0  0  0  0  0  0  0  0  0  0  0  0
   93.5512   50.6920   71.2718 C   0  0  0  0  0  0  0  0  0  0  0  0
   94.8840   46.7786   70.9928 C   0  0  0  0  0  0  0  0  0  0  0  0
  1  5  1  0
  2  5  1  0
  2 11  1  0
  3  6  1  0
  3 10  1  0
  3 21  1  0
  3 24  1  0
  4  5  1  0
  5  7  1  0
  7  9  1  0
  8 13  1  0
  8 14  1  0
  8 24  1  0
  9 12  1  0
 11 28  1  0
 12 22  1  0
 12 27  1  0
 13 26  1  0
 13 30  1  0
 14 18  1  0
 14 25  1  0
 15 26  1  0
 16 20  1  0
 17 27  2  0
 18 21  1  0
 19 27  1  0
 20 28  1  0
 20 29  1  0
 23 25  1  0
 26 28  1  0
M  END
>  <ID>  (1) 
conformer_0

$$$$
