
     RDKit          3D

 19 18  0  0  0  0  0  0  0  0999 V2000
   99.0905   44.5499   74.7898 C   0  0  0  0  0  0  0  0  0  0  0  0
   97.2421   46.3597   75.2889 P   0  0  0  0  0  4  0  0  0  0  0  0
   93.4016   46.7508   72.4987 C   0  0  0  0  0  0  0  0  0  0  0  0
   98.4508   47.1308   75.9562 O   0  0  0  0  0  1  0  0  0  0  0  0
   95.5592   51.8663   71.9256 O   0  0  0  0  0  0  0  0  0  0  0  0
   92.4909   45.6001   71.8754 C   0  0  0  0  0  0  0  0  0  0  0  0
   95.9485   46.6704   76.0658 O   0  0  0  0  0  0  0  0  0  0  0  0
   94.6935   48.8775   73.5244 C   0  0  0  0  0  0  0  0  0  0  0  0
   94.7202   50.9400   71.9752 C   0  0  0  0  0  0  0  0  0  0  0  0
   95.8861   46.6540   72.6605 C   0  0  0  0  0  0  0  0  0  0  0  0
   94.6505   47.3305   73.2812 C   0  0  0  0  0  0  0  0  0  0  0  0
   90.4885   45.1502   73.3923 C   0  0  0  0  0  0  0  0  0  0  0  0
   97.1162   46.5779   73.4731 C   0  0  0  0  0  0  0  0  0  0  0  0
   97.7134   44.7569   75.3800 O   0  0  0  0  0  0  0  0  0  0  0  0
   94.3732   50.4220   73.3490 C   0  0  0  0  0  0  0  0  0  0  0  0
   90.2071   45.8232   71.0579 O   0  0  0  0  0  0  0  0  0  0  0  0
   89.0941   44.7753   73.0601 O   0  0  0  0  0  0  0  0  0  0  0  0
   94.2501   50.2701   71.0069 O   0  0  0  0  0  0  0  0  0  0  0  0
   91.0229   45.9178   72.1691 C   0  0  0  0  0  0  0  0  0  0  0  0
  1 14  1  0
  2  4  2  0
  2  7  1  0
  2 13  1  0
  2 14  1  0
  3  6  1  0
  3 11  1  0
  5  9  2  0
  6 19  1  0
  8 11  1  0
  8 15  1  0
  9 15  1  0
  9 18  1  0
 10 11  1  0
 10 13  1  0
 12 17  1  0
 12 19  1  0
 16 19  1  0
M  END
>  <ID>  (1) 
conformer_0

$$$$
