
     RDKit          3D

 24 27  0  0  0  0  0  0  0  0999 V2000
   90.9549   44.8911   72.5998 C   0  0  0  0  0  0  0  0  0  0  0  0
   89.7015   47.2267   70.0831 N   0  0  0  0  0  0  0  0  0  0  0  0
   97.6636   45.3775   74.5624 O   0  0  0  0  0  0  0  0  0  0  0  0
   95.0409   48.7264   72.7704 C   0  0  0  0  0  0  0  0  0  0  0  0
   93.4903   49.1418   70.7140 N   0  0  0  0  0  0  0  0  0  0  0  0
   96.5536   50.4695   73.6015 C   0  0  0  0  0  0  0  0  0  0  0  0
   92.1949   48.7003   70.3212 C   0  0  0  0  0  0  0  0  0  0  0  0
   90.4186   43.7812   73.1046 N   0  0  0  0  0  0  0  0  0  0  0  0
   95.1387   51.1018   71.7473 O   0  0  0  0  0  0  0  0  0  0  0  0
   97.0359   49.0463   74.1405 C   0  0  0  0  0  0  0  0  0  0  0  0
   93.0250   46.2398   72.9019 C   0  0  0  0  0  0  0  0  0  0  0  0
   91.8430   47.6064   71.1598 C   0  0  0  0  0  0  0  0  0  0  0  0
   97.9535   47.8097   73.7217 C   0  0  0  0  0  0  0  0  0  0  0  0
   95.4722   50.1531   72.6080 C   0  0  0  0  0  0  0  0  0  0  0  0
   95.8702   46.8354   76.0337 O   0  0  0  0  0  0  0  0  0  0  0  0
   97.1410   46.4791   73.9528 C   0  0  0  0  0  0  0  0  0  0  0  0
   92.9149   47.3919   72.0357 C   0  0  0  0  0  0  0  0  0  0  0  0
   97.6864   49.4906   75.5009 C   0  0  0  0  0  0  0  0  0  0  0  0
   92.2256   45.1826   73.0334 N   0  0  0  0  0  0  0  0  0  0  0  0
   95.8380   46.9685   74.6755 C   0  0  0  0  0  0  0  0  0  0  0  0
   90.6307   46.8247   71.0372 C   0  0  0  0  0  0  0  0  0  0  0  0
   93.9157   48.3908   71.8060 C   0  0  0  0  0  0  0  0  0  0  0  0
   90.2205   45.6593   71.6919 C   0  0  0  0  0  0  0  0  0  0  0  0
   95.6365   48.3422   74.1657 C   0  0  0  0  0  0  0  0  0  0  0  0
  1  8  2  0
  1 19  1  0
  1 23  1  0
  2 21  1  0
  3 16  1  0
  4 14  1  0
  4 22  1  0
  4 24  1  0
  5  7  1  0
  5 22  1  0
  6 10  1  0
  6 14  1  0
  7 12  1  0
  9 14  1  0
 10 13  1  0
 10 18  1  0
 10 24  1  0
 11 17  1  0
 11 19  2  0
 12 17  2  0
 12 21  1  0
 13 16  1  0
 15 20  1  0
 16 20  1  0
 17 22  1  0
 20 24  1  0
 21 23  2  0
M  END
>  <ID>  (1) 
conformer_0

$$$$
