
     RDKit          3D

 40 42  0  0  0  0  0  0  0  0999 V2000
   92.2344   46.9118   71.7066 C   0  0  0  0  0  0  0  0  0  0  0  0
   90.9434   46.7789   71.1167 C   0  0  0  0  0  0  0  0  0  0  0  0
   96.6548   46.4919   75.2195 C   0  0  0  0  0  0  0  0  0  0  0  0
   96.5324   51.2124   72.3962 C   0  0  0  0  0  0  0  0  0  0  0  0
   98.9636   46.0099   74.3274 C   0  0  0  0  0  0  0  0  0  0  0  0
   89.0001   44.8196   73.1355 N   0  0  0  0  0  0  0  0  0  0  0  0
   99.3878   47.5083   72.5741 O   0  0  0  0  0  0  0  0  0  0  0  0
   94.2571   48.1556   71.1217 F   0  0  0  0  0  0  0  0  0  0  0  0
   92.2110   50.1370   70.1203 C   0  0  0  0  0  0  0  0  0  0  0  0
   94.2884   50.8348   71.1782 O   0  0  0  0  0  0  0  0  0  0  0  0
   97.5510   52.1445   71.8258 C   0  0  0  0  0  0  0  0  0  0  0  0
   91.0253   43.9957   72.4442 O   0  0  0  0  0  0  0  0  0  0  0  0
   95.1157   50.7977   72.2723 C   0  0  0  0  0  0  0  0  0  0  0  0
  100.6863   44.4742   74.8631 N   0  0  0  0  0  0  0  0  0  0  0  0
  101.2844   46.5573   73.6961 C   0  0  0  0  0  0  0  0  0  0  0  0
   89.8733   48.0251   69.3811 N   0  0  0  0  0  0  0  0  0  0  0  0
   92.8662   48.0127   71.1695 C   0  0  0  0  0  0  0  0  0  0  0  0
  102.6313   45.5669   75.3606 O   0  0  0  0  0  0  0  0  0  0  0  0
   97.8645   53.1334   72.7058 O   0  0  0  0  0  0  0  0  0  0  0  0
   97.8623   46.8859   74.6377 N   0  0  0  0  0  0  0  0  0  0  0  0
   91.9235   48.7240   70.4841 N   0  0  0  0  0  0  0  0  0  0  0  0
   91.0945   50.9004   69.5020 C   0  0  0  0  0  0  0  0  0  0  0  0
   96.5833   45.4068   75.7809 O   0  0  0  0  0  0  0  0  0  0  0  0
   99.9364   46.5738   73.4159 C   0  0  0  0  0  0  0  0  0  0  0  0
   99.3210   44.7487   74.9671 C   0  0  0  0  0  0  0  0  0  0  0  0
   93.0396   46.0588   72.6588 C   0  0  0  0  0  0  0  0  0  0  0  0
   95.5734   47.4602   75.0769 O   0  0  0  0  0  0  0  0  0  0  0  0
   96.0657   48.7027   75.2937 C   0  0  0  0  0  0  0  0  0  0  0  0
   96.7645   49.0372   76.3200 O   0  0  0  0  0  0  0  0  0  0  0  0
   92.2903   51.4279   72.1042 O   0  0  0  0  0  0  0  0  0  0  0  0
   94.7154   50.2155   73.5883 C   0  0  0  0  0  0  0  0  0  0  0  0
   95.4528   50.9204   74.6781 C   0  0  0  0  0  0  0  0  0  0  0  0
   97.9770   51.8340   70.6682 O   0  0  0  0  0  0  0  0  0  0  0  0
   92.9054   50.9176   71.1440 C   0  0  0  0  0  0  0  0  0  0  0  0
   90.8045   47.9152   70.3061 C   0  0  0  0  0  0  0  0  0  0  0  0
   90.1074   44.8213   72.2842 C   0  0  0  0  0  0  0  0  0  0  0  0
   97.1332   50.2114   73.2727 O   0  0  0  0  0  0  0  0  0  0  0  0
   96.1004   49.6674   74.1370 C   0  0  0  0  0  0  0  0  0  0  0  0
   90.0281   45.7487   71.2268 N   0  0  0  0  0  0  0  0  0  0  0  0
  101.6225   45.4946   74.6405 C   0  0  0  0  0  0  0  0  0  0  0  0
  1  2  2  0
  1 17  1  0
  1 26  1  0
  2 35  1  0
  2 39  1  0
  3 20  1  0
  3 23  2  0
  3 27  1  0
  4 11  1  0
  4 13  1  0
  4 37  1  0
  5 20  1  0
  5 24  1  0
  5 25  1  0
  6 36  1  0
  7 24  1  0
  8 17  1  0
  9 21  1  0
  9 22  1  0
  9 34  1  0
 10 13  1  0
 10 34  1  0
 11 19  2  0
 11 33  1  0
 12 36  2  0
 13 31  1  0
 14 25  1  0
 14 40  1  0
 15 24  1  0
 15 40  1  0
 16 35  2  0
 17 21  1  0
 18 40  2  0
 21 35  1  0
 27 28  1  0
 28 29  2  0
 28 38  1  0
 30 34  2  0
 31 32  1  0
 32 38  1  0
 36 39  1  0
 37 38  1  0
M  END
>  <ID>  (1) 
conformer_0

$$$$
