
     RDKit          3D

 36 39  0  0  0  0  0  0  0  0999 V2000
   92.2768   49.7521   70.7037 C   0  0  0  0  0  0  0  0  0  0  0  0
   98.5378   44.4924   76.3540 O   0  0  0  0  0  0  0  0  0  0  0  0
   90.6569   43.9166   73.2642 N   0  0  0  0  0  0  0  0  0  0  0  0
   99.7121   45.2336   75.7874 S   0  0  0  0  0  4  0  0  0  0  0  0
  100.6887   45.7204   76.8843 O   0  0  0  0  0  0  0  0  0  0  0  0
   89.2510   45.0570   71.7555 N   0  0  0  0  0  0  0  0  0  0  0  0
   92.2361   51.0595   70.3461 O   0  0  0  0  0  0  0  0  0  0  0  0
   94.3438   50.6176   71.6731 C   0  0  0  0  0  0  0  0  0  0  0  0
   99.5029   47.9250   74.7005 C   0  0  0  0  0  0  0  0  0  0  0  0
   89.3291   45.9657   70.6910 O   0  0  0  0  0  0  0  0  0  0  0  0
   97.0255   47.7322   74.3006 C   0  0  0  0  0  0  0  0  0  0  0  0
   93.2394   45.5886   72.7186 C   0  0  0  0  0  0  0  0  0  0  0  0
   98.1603   48.7145   74.5089 C   0  0  0  0  0  0  0  0  0  0  0  0
   95.8400   51.9767   73.0592 C   0  0  0  0  0  0  0  0  0  0  0  0
   90.8599   46.2130   72.7613 C   0  0  0  0  0  0  0  0  0  0  0  0
   90.2912   45.0281   72.6255 C   0  0  0  0  0  0  0  0  0  0  0  0
   90.8259   48.2208   69.6887 C   0  0  0  0  0  0  0  0  0  0  0  0
   99.0325   48.4306   73.4360 O   0  0  0  0  0  0  0  0  0  0  0  0
   93.6834   48.3086   72.2313 C   0  0  0  0  0  0  0  0  0  0  0  0
   95.0217   51.6213   72.0656 C   0  0  0  0  0  0  0  0  0  0  0  0
   95.7409   50.2692   74.8053 N   0  0  0  0  0  0  0  0  0  0  0  0
   96.1981   51.3893   74.1993 C   0  0  0  0  0  0  0  0  0  0  0  0
   90.4610   49.6826   69.7303 C   0  0  0  0  0  0  0  0  0  0  0  0
   95.3631   47.0079   75.6020 O   0  0  0  0  0  0  0  0  0  0  0  0
   92.1257   48.2790   70.3627 C   0  0  0  0  0  0  0  0  0  0  0  0
   94.4765   47.4770   73.2120 N   0  0  0  0  0  0  0  0  0  0  0  0
   97.7499   46.4576   74.2267 C   0  0  0  0  0  0  0  0  0  0  0  0
   92.1830   46.4634   72.3112 C   0  0  0  0  0  0  0  0  0  0  0  0
   93.5163   49.6370   71.6335 N   0  0  0  0  0  0  0  0  0  0  0  0
   95.5245   47.8029   74.5250 C   0  0  0  0  0  0  0  0  0  0  0  0
  100.5058   44.2832   74.8620 O   0  0  0  0  0  0  0  0  0  0  0  0
   92.6350   47.6552   71.6504 C   0  0  0  0  0  0  0  0  0  0  0  0
   95.1050   49.1411   74.8382 N   0  0  0  0  0  0  0  0  0  0  0  0
   93.1832   48.0215   69.2873 O   0  0  0  0  0  0  0  0  0  0  0  0
   99.0969   46.5280   74.8113 C   0  0  0  0  0  0  0  0  0  0  0  0
   94.4237   46.1136   73.1038 N   0  0  0  0  0  0  0  0  0  0  0  0
  1  7  2  0
  1 25  1  0
  1 29  1  0
  2  4  1  0
  3 16  2  0
  4  5  1  0
  4 31  1  0
  4 35  1  0
  6 10  1  0
  6 16  1  0
  8 20  1  0
  8 29  1  0
  9 18  1  0
  9 35  1  0
 11 13  1  0
 11 27  1  0
 11 30  1  0
 12 28  1  0
 12 36  2  0
 13 18  1  0
 14 20  2  0
 14 22  1  0
 15 16  1  0
 15 28  1  0
 17 23  1  0
 17 25  1  0
 19 26  1  0
 19 29  1  0
 19 32  1  0
 21 22  1  0
 21 33  1  0
 24 30  1  0
 25 32  1  0
 25 34  1  0
 26 30  1  0
 26 36  1  0
 27 35  1  0
 28 32  1  0
 30 33  1  0
M  END
>  <ID>  (1) 
conformer_0

$$$$
