
     RDKit          3D

 27 28  0  0  0  0  0  0  0  0999 V2000
   93.7846   48.1625   71.7772 C   0  0  0  0  0  0  0  0  0  0  0  0
   99.1794   44.4420   76.1830 O   0  0  0  0  0  1  0  0  0  0  0  0
   94.7793   50.4218   72.2878 C   0  0  0  0  0  0  0  0  0  0  0  0
   93.6820   46.3529   73.7988 O   0  0  0  0  0  0  0  0  0  0  0  0
   92.5768   48.8768   69.6315 C   0  0  0  0  0  0  0  0  0  0  0  0
   96.2026   48.3528   75.0046 S   0  0  0  0  0  0  0  0  0  0  0  0
  100.0833   46.5713   76.8703 O   0  0  0  0  0  1  0  0  0  0  0  0
   93.1302   49.9278   70.4504 O   0  0  0  0  0  0  0  0  0  0  0  0
   90.6935   45.1112   72.4575 C   0  0  0  0  0  0  0  0  0  0  0  0
   96.0918   48.2059   73.4950 C   0  0  0  0  0  0  0  0  0  0  0  0
   96.9373   47.0826   73.3076 O   0  0  0  0  0  0  0  0  0  0  0  0
   95.8735   49.6284   73.0036 C   0  0  0  0  0  0  0  0  0  0  0  0
   96.7924   50.5104   73.6603 O   0  0  0  0  0  0  0  0  0  0  0  0
   99.1654   46.2209   74.6031 O   0  0  0  0  0  0  0  0  0  0  0  0
   95.4711   51.2678   71.3941 O   0  0  0  0  0  0  0  0  0  0  0  0
   91.9294   45.1706   73.0744 N   0  0  0  0  0  0  0  0  0  0  0  0
   89.8743   44.1511   72.9585 N   0  0  0  0  0  0  0  0  0  0  0  0
   92.5068   47.3242   72.0501 C   0  0  0  0  0  0  0  0  0  0  0  0
   94.8450   47.6282   71.1219 O   0  0  0  0  0  0  0  0  0  0  0  0
   91.1756   47.2956   71.5655 O   0  0  0  0  0  0  0  0  0  0  0  0
   97.7650   46.7012   74.4172 C   0  0  0  0  0  0  0  0  0  0  0  0
   99.5236   45.7180   75.9930 P   0  0  0  0  0  0  0  0  0  0  0  0
   89.0273   46.3615   71.4103 O   0  0  0  0  0  0  0  0  0  0  0  0
   97.5742   47.8229   75.4571 C   0  0  0  0  0  0  0  0  0  0  0  0
   90.2747   46.2686   71.7644 C   0  0  0  0  0  0  0  0  0  0  0  0
   93.6467   49.6115   71.7127 C   0  0  0  0  0  0  0  0  0  0  0  0
   92.7271   46.2459   72.9819 C   0  0  0  0  0  0  0  0  0  0  0  0
  1 18  1  0
  1 19  1  0
  1 26  1  0
  2 22  1  0
  3 12  1  0
  3 15  1  0
  3 26  1  0
  4 27  2  0
  5  8  1  0
  6 10  1  0
  6 24  1  0
  7 22  1  0
  8 26  1  0
  9 16  1  0
  9 17  2  0
  9 25  1  0
 10 11  1  0
 10 12  1  0
 11 21  1  0
 12 13  1  0
 14 21  1  0
 14 22  1  0
 16 27  1  0
 18 20  1  0
 18 27  1  0
 20 25  1  0
 21 24  1  0
 23 25  2  0
M  END
>  <ID>  (1) 
conformer_0

$$$$
