
     RDKit          3D

 40 43  0  0  0  0  0  0  0  0999 V2000
   91.4006   45.0367   71.0685 C   0  0  0  0  0  0  0  0  0  0  0  0
   92.8894   49.3645   70.4552 C   0  0  0  0  0  0  0  0  0  0  0  0
   91.3181   48.5201   68.9131 C   0  0  0  0  0  0  0  0  0  0  0  0
   90.5651   43.7599   73.3586 N   0  0  0  0  0  0  0  0  0  0  0  0
   99.7506   45.9029   75.1600 P   0  0  0  0  0  4  0  0  0  0  0  0
   93.4452   47.0252   73.4524 C   0  0  0  0  0  0  0  0  0  0  0  0
   91.0602   45.1727   73.5314 C   0  0  0  0  0  0  0  0  0  0  0  0
   93.9518   49.4145   72.8782 C   0  0  0  0  0  0  0  0  0  0  0  0
  100.0575   46.6888   76.4447 O   0  0  0  0  0  1  0  0  0  0  0  0
   95.9967   51.5172   73.3324 C   0  0  0  0  0  0  0  0  0  0  0  0
   98.2841   46.4147   74.5255 O   0  0  0  0  0  0  0  0  0  0  0  0
   95.8030   46.6326   73.9218 C   0  0  0  0  0  0  0  0  0  0  0  0
   95.9678   50.7693   72.1280 C   0  0  0  0  0  0  0  0  0  0  0  0
   91.6365   49.5290   69.9129 C   0  0  0  0  0  0  0  0  0  0  0  0
   98.1715   46.7456   73.0821 C   0  0  0  0  0  0  0  0  0  0  0  0
   96.7380   46.2420   75.2692 P   0  0  0  0  0  4  0  0  0  0  0  0
   92.0303   45.3243   72.3641 C   0  0  0  0  0  0  0  0  0  0  0  0
   90.2802   47.5582   68.8720 N   0  0  0  0  0  0  0  0  0  0  0  0
   92.6297   51.2959   71.8976 C   0  0  0  0  0  0  0  0  0  0  0  0
   96.6903   46.9185   72.7114 C   0  0  0  0  0  0  0  0  0  0  0  0
   94.6833   48.9320   74.0721 C   0  0  0  0  0  0  0  0  0  0  0  0
   91.6646   45.9411   69.9868 C   0  0  0  0  0  0  0  0  0  0  0  0
   97.7704   52.0638   71.4159 C   0  0  0  0  0  0  0  0  0  0  0  0
   96.8833   44.8162   75.8112 O   0  0  0  0  0  1  0  0  0  0  0  0
   96.8037   52.6258   73.5135 C   0  0  0  0  0  0  0  0  0  0  0  0
   93.6427   48.4626   69.6619 O   0  0  0  0  0  0  0  0  0  0  0  0
   94.9732   49.6890   71.7342 C   0  0  0  0  0  0  0  0  0  0  0  0
   91.5002   51.6031   71.1703 C   0  0  0  0  0  0  0  0  0  0  0  0
   94.6515   47.4761   74.0685 N   0  0  0  0  0  0  0  0  0  0  0  0
   96.1776   47.1363   76.3756 O   0  0  0  0  0  0  0  0  0  0  0  0
   90.6635   46.1109   68.8967 C   0  0  0  0  0  0  0  0  0  0  0  0
   93.3480   50.0307   71.6205 C   0  0  0  0  0  0  0  0  0  0  0  0
   97.7442   52.8955   72.5172 C   0  0  0  0  0  0  0  0  0  0  0  0
   93.3344   45.8991   72.5157 C   0  0  0  0  0  0  0  0  0  0  0  0
   92.9090   48.0103   67.3642 O   0  0  0  0  0  0  0  0  0  0  0  0
  100.9952   46.2655   73.9866 C   0  0  0  0  0  0  0  0  0  0  0  0
   96.9773   51.0551   71.2145 N   0  0  0  0  0  0  0  0  0  0  0  0
   90.9462   50.7066   70.2460 C   0  0  0  0  0  0  0  0  0  0  0  0
   99.7561   44.3867   75.3649 O   0  0  0  0  0  0  0  0  0  0  0  0
   92.6954   48.0096   68.6459 C   0  0  0  0  0  0  0  0  0  0  0  0
  1 17  1  0
  1 22  1  0
  2 14  1  0
  2 26  1  0
  2 32  1  0
  3 14  1  0
  3 18  1  0
  3 40  1  0
  4  7  1  0
  5  9  2  0
  5 11  1  0
  5 36  1  0
  5 39  1  0
  6 29  1  0
  6 34  1  0
  7 17  1  0
  8 21  1  0
  8 27  1  0
  8 32  1  0
 10 13  2  0
 10 25  1  0
 11 16  1  0
 12 16  1  0
 12 20  1  0
 12 29  1  0
 13 27  1  0
 13 37  1  0
 14 38  2  0
 15 20  1  0
 16 24  2  0
 16 30  1  0
 17 34  1  0
 18 31  1  0
 19 28  2  0
 19 32  1  0
 21 29  1  0
 22 31  1  0
 23 33  1  0
 23 37  2  0
 25 33  2  0
 26 40  1  0
 28 38  1  0
 35 40  2  0
M  END
>  <ID>  (1) 
conformer_0

$$$$
