
     RDKit          3D

 14 14  0  0  0  0  0  0  0  0999 V2000
   96.4959   48.7846   74.6813 C   0  0  0  0  0  0  0  0  0  0  0  0
   93.9144   46.4631   73.0543 C   0  0  0  0  0  0  0  0  0  0  0  0
   96.7277   46.3172   74.6020 C   0  0  0  0  0  0  0  0  0  0  0  0
   95.0402   51.1803   72.3121 N   0  0  0  0  0  0  0  0  0  0  0  0
   91.9941   45.2725   71.9277 C   0  0  0  0  0  0  0  0  0  0  0  0
   96.1519   49.9959   74.1278 C   0  0  0  0  0  0  0  0  0  0  0  0
   92.4280   46.3310   72.9808 C   0  0  0  0  0  0  0  0  0  0  0  0
   94.8010   47.6434   73.4242 C   0  0  0  0  0  0  0  0  0  0  0  0
   94.4525   48.8627   72.8652 C   0  0  0  0  0  0  0  0  0  0  0  0
   95.9377   47.5816   74.2667 C   0  0  0  0  0  0  0  0  0  0  0  0
   96.6793   45.7160   75.6733 O   0  0  0  0  0  0  0  0  0  0  0  0
   95.1951   50.0028   73.1299 C   0  0  0  0  0  0  0  0  0  0  0  0
   97.6607   46.0900   73.7586 O   0  0  0  0  0  0  0  0  0  0  0  0
   90.8387   44.4322   72.4331 C   0  0  0  0  0  0  0  0  0  0  0  0
  1  6  2  0
  1 10  1  0
  2  7  1  0
  2  8  1  0
  3 10  1  0
  3 11  2  0
  3 13  1  0
  4 12  1  0
  5  7  1  0
  5 14  1  0
  6 12  1  0
  8  9  1  0
  8 10  1  0
  9 12  2  0
M  END
>  <ID>  (1) 
conformer_0

$$$$
