
     RDKit          3D

 22 22  0  0  0  0  0  0  0  0999 V2000
   97.4176   49.9626   73.4487 C   0  0  0  0  0  0  0  0  0  0  0  0
   95.0826   49.2713   73.2028 C   0  0  0  0  0  0  0  0  0  0  0  0
   96.0876   52.7016   71.4758 O   0  0  0  0  0  0  0  0  0  0  0  0
   93.3121   49.2777   71.4777 O   0  0  0  0  0  0  0  0  0  0  0  0
   98.6833   50.1719   73.8444 O   0  0  0  0  0  0  0  0  0  0  0  0
   97.1966   52.1272   72.1544 C   0  0  0  0  0  0  0  0  0  0  0  0
   89.5119   45.7564   70.7036 O   0  0  0  0  0  0  0  0  0  0  0  0
   97.5046   48.0725   75.0118 C   0  0  0  0  0  0  0  0  0  0  0  0
   96.4022   48.9787   74.1002 C   0  0  0  0  0  0  0  0  0  0  0  0
   96.3714   45.7986   74.1035 O   0  0  0  0  0  1  0  0  0  0  0  0
   90.4126   44.3546   72.2401 O   0  0  0  0  0  0  0  0  0  0  0  0
   95.2827   50.6628   72.8966 O   0  0  0  0  0  0  0  0  0  0  0  0
   94.0232   48.5282   72.4017 C   0  0  0  0  0  0  0  0  0  0  0  0
   90.9016   46.6849   72.2872 C   0  0  0  0  0  0  0  0  0  0  0  0
   90.2119   45.4986   71.7170 C   0  0  0  0  0  0  0  0  0  0  0  0
   97.7585   45.6155   76.2627 O   0  0  0  0  0  0  0  0  0  0  0  0
   93.2739   46.1663   71.8292 C   0  0  0  0  0  0  0  0  0  0  0  0
   96.7790   46.5199   75.3997 P   0  0  0  0  0  4  0  0  0  0  0  0
   92.0892   46.9582   71.5815 N   0  0  0  0  0  0  0  0  0  0  0  0
   95.5811   46.9469   76.2503 O   0  0  0  0  0  0  0  0  0  0  0  0
   96.6094   51.2405   73.2718 C   0  0  0  0  0  0  0  0  0  0  0  0
   94.4624   47.1422   71.9210 C   0  0  0  0  0  0  0  0  0  0  0  0
  1  5  1  0
  1  9  1  0
  1 21  1  0
  2  9  1  0
  2 12  1  0
  2 13  1  0
  3  6  1  0
  4 13  1  0
  6 21  1  0
  7 15  2  0
  8  9  1  0
  8 18  1  0
 10 18  2  0
 11 15  1  0
 12 21  1  0
 13 22  1  0
 14 15  1  0
 14 19  1  0
 16 18  1  0
 17 19  1  0
 17 22  1  0
 18 20  1  0
M  END
>  <ID>  (1) 
conformer_0

$$$$
