
     RDKit          3D

 23 23  0  0  0  0  0  0  0  0999 V2000
   91.1027   45.5719   72.1914 C   0  0  0  0  0  0  0  0  0  0  0  0
   97.0435   47.5726   73.8875 C   0  0  0  0  0  0  0  0  0  0  0  0
   92.1319   47.4858   71.4518 C   0  0  0  0  0  0  0  0  0  0  0  0
   90.5371   47.7780   69.4954 C   0  0  0  0  0  0  0  0  0  0  0  0
   95.9624   46.9066   76.3102 O   0  0  0  0  0  1  0  0  0  0  0  0
   93.7954   51.0417   71.8796 C   0  0  0  0  0  0  0  0  0  0  0  0
   97.1944   46.3346   75.5726 P   0  0  0  0  0  4  0  0  0  0  0  0
   98.5723   46.4509   76.4156 O   0  0  0  0  0  0  0  0  0  0  0  0
   97.8013   48.8053   74.4754 C   0  0  0  0  0  0  0  0  0  0  0  0
   90.4814   45.9374   71.0404 N   0  0  0  0  0  0  0  0  0  0  0  0
   92.1532   46.4616   72.5097 N   0  0  0  0  0  0  0  0  0  0  0  0
   93.8230   49.8052   70.8815 C   0  0  0  0  0  0  0  0  0  0  0  0
   92.6535   48.8991   71.2303 C   0  0  0  0  0  0  0  0  0  0  0  0
   97.5079   49.8144   72.3311 O   0  0  0  0  0  0  0  0  0  0  0  0
   94.7356   49.8674   73.8496 O   0  0  0  0  0  0  0  0  0  0  0  0
   95.9803   51.9663   72.7435 C   0  0  0  0  0  0  0  0  0  0  0  0
   90.5925   44.4609   72.9546 C   0  0  0  0  0  0  0  0  0  0  0  0
   97.6836   46.7554   72.9094 O   0  0  0  0  0  0  0  0  0  0  0  0
   97.1081   44.8525   75.1220 O   0  0  0  0  0  0  0  0  0  0  0  0
   94.9418   50.8701   72.8604 C   0  0  0  0  0  0  0  0  0  0  0  0
   97.4033   50.1467   73.7578 C   0  0  0  0  0  0  0  0  0  0  0  0
   97.1505   51.6754   73.7422 C   0  0  0  0  0  0  0  0  0  0  0  0
   91.0242   47.1133   70.6181 C   0  0  0  0  0  0  0  0  0  0  0  0
  1 10  2  0
  1 11  1  0
  1 17  1  0
  2  7  1  0
  2  9  1  0
  2 18  1  0
  3 11  1  0
  3 13  1  0
  3 23  2  0
  4 23  1  0
  5  7  2  0
  6 12  1  0
  6 20  1  0
  7  8  1  0
  7 19  1  0
  9 21  1  0
 10 23  1  0
 12 13  1  0
 14 21  1  0
 15 20  1  0
 16 20  1  0
 16 22  1  0
 21 22  1  0
M  END
>  <ID>  (1) 
conformer_0

$$$$
