
     RDKit          3D

 26 28  0  0  0  0  0  0  0  0999 V2000
   98.2991   45.9567   73.6279 O   0  0  0  0  0  0  0  0  0  0  0  0
   90.7101   47.5081   70.4791 C   0  0  0  0  0  0  0  0  0  0  0  0
   99.3518   44.2974   75.4918 O   0  0  0  0  0  0  0  0  0  0  0  0
   92.9408   48.2506   70.8698 N   0  0  0  0  0  0  0  0  0  0  0  0
   95.7765   49.0867   73.2844 C   0  0  0  0  0  0  0  0  0  0  0  0
   95.3628   49.9812   72.2828 C   0  0  0  0  0  0  0  0  0  0  0  0
   92.0206   46.2028   71.9910 C   0  0  0  0  0  0  0  0  0  0  0  0
   96.4416   46.4356   75.0742 C   0  0  0  0  0  0  0  0  0  0  0  0
   95.5594   46.5325   73.9844 C   0  0  0  0  0  0  0  0  0  0  0  0
   94.3033   48.2089   71.1061 C   0  0  0  0  0  0  0  0  0  0  0  0
   90.9460   45.3637   72.1234 C   0  0  0  0  0  0  0  0  0  0  0  0
   91.0122   44.2267   72.9539 N   0  0  0  0  0  0  0  0  0  0  0  0
   96.0564   49.6003   74.5631 C   0  0  0  0  0  0  0  0  0  0  0  0
   92.5689   49.3880   70.0155 C   0  0  0  0  0  0  0  0  0  0  0  0
   94.9427   49.4668   71.0518 N   0  0  0  0  0  0  0  0  0  0  0  0
   98.3908   45.1349   75.9029 C   0  0  0  0  0  0  0  0  0  0  0  0
   96.0634   46.9167   76.2393 O   0  0  0  0  0  0  0  0  0  0  0  0
   95.9182   47.6162   72.9379 C   0  0  0  0  0  0  0  0  0  0  0  0
   89.6700   46.6692   70.6450 C   0  0  0  0  0  0  0  0  0  0  0  0
   97.7819   45.9334   74.8318 C   0  0  0  0  0  0  0  0  0  0  0  0
   89.7840   45.5890   71.4242 N   0  0  0  0  0  0  0  0  0  0  0  0
   91.9059   47.3026   71.1391 C   0  0  0  0  0  0  0  0  0  0  0  0
   95.3475   51.3555   72.5275 C   0  0  0  0  0  0  0  0  0  0  0  0
   96.0072   50.9467   74.8344 C   0  0  0  0  0  0  0  0  0  0  0  0
   95.6290   51.8364   73.8069 C   0  0  0  0  0  0  0  0  0  0  0  0
   95.1615   47.1769   71.6847 C   0  0  0  0  0  0  0  0  0  0  0  0
  1 20  1  0
  2 19  1  0
  2 22  2  0
  3 16  1  0
  4 10  1  0
  4 14  1  0
  4 22  1  0
  5  6  1  0
  5 13  2  0
  5 18  1  0
  6 15  1  0
  6 23  2  0
  7 11  1  0
  7 22  1  0
  8  9  1  0
  8 17  1  0
  8 20  1  0
  9 18  1  0
 10 15  2  0
 10 26  1  0
 11 12  2  0
 11 21  1  0
 13 24  1  0
 16 20  1  0
 18 26  1  0
 19 21  2  0
 23 25  1  0
 24 25  2  0
M  END
>  <ID>  (1) 
conformer_0

$$$$
