
     RDKit          3D

 29 31  0  0  0  0  0  0  0  0999 V2000
   89.9720   45.2383   72.7750 C   0  0  0  0  0  0  0  0  0  0  0  0
   97.4969   45.6910   76.2757 O   0  0  0  0  0  0  0  0  0  0  0  0
   93.9544   46.7869   70.4877 O   0  0  0  0  0  0  0  0  0  0  0  0
   93.7879   48.4200   72.7280 C   0  0  0  0  0  0  0  0  0  0  0  0
   89.2048   45.8842   71.8289 N   0  0  0  0  0  0  0  0  0  0  0  0
   93.6778   46.5492   74.1492 O   0  0  0  0  0  0  0  0  0  0  0  0
   94.0021   49.8566   72.3767 C   0  0  0  0  0  0  0  0  0  0  0  0
   97.1370   48.2924   75.7557 O   0  0  0  0  0  0  0  0  0  0  0  0
   93.2175   50.7899   72.9777 O   0  0  0  0  0  0  0  0  0  0  0  0
   91.9850   46.0221   71.7602 C   0  0  0  0  0  0  0  0  0  0  0  0
   97.8709   51.6988   71.3994 C   0  0  0  0  0  0  0  0  0  0  0  0
   97.1848   49.6595   75.7715 C   0  0  0  0  0  0  0  0  0  0  0  0
   96.5720   46.8953   72.0247 O   0  0  0  0  0  0  0  0  0  0  0  0
   96.1975   46.4781   74.3481 C   0  0  0  0  0  0  0  0  0  0  0  0
   97.0011   52.8229   71.1994 O   0  0  0  0  0  0  0  0  0  0  0  0
   96.1097   49.0101   73.7914 C   0  0  0  0  0  0  0  0  0  0  0  0
   96.2507   50.0824   74.7734 O   0  0  0  0  0  0  0  0  0  0  0  0
   91.3339   45.2464   72.7340 C   0  0  0  0  0  0  0  0  0  0  0  0
   95.2537   50.2808   71.7495 C   0  0  0  0  0  0  0  0  0  0  0  0
   96.1718   47.8694   74.8397 C   0  0  0  0  0  0  0  0  0  0  0  0
   89.8431   46.6579   70.8907 C   0  0  0  0  0  0  0  0  0  0  0  0
   97.0179   45.5369   75.0073 C   0  0  0  0  0  0  0  0  0  0  0  0
   94.1632   46.9401   72.9426 C   0  0  0  0  0  0  0  0  0  0  0  0
   95.6659   46.5617   72.9767 C   0  0  0  0  0  0  0  0  0  0  0  0
   97.4714   50.9626   72.6533 C   0  0  0  0  0  0  0  0  0  0  0  0
   98.5871   50.6926   73.4196 O   0  0  0  0  0  0  0  0  0  0  0  0
   91.2032   46.6948   70.8261 C   0  0  0  0  0  0  0  0  0  0  0  0
   96.4859   49.8005   72.4500 C   0  0  0  0  0  0  0  0  0  0  0  0
   93.4871   46.1173   71.7413 C   0  0  0  0  0  0  0  0  0  0  0  0
  1  5  2  0
  1 18  1  0
  2 22  1  0
  3 29  1  0
  4  7  1  0
  4 23  1  0
  5 21  1  0
  6 23  1  0
  7  9  1  0
  7 19  1  0
  8 12  1  0
  8 20  1  0
 10 18  2  0
 10 27  1  0
 10 29  1  0
 11 15  1  0
 11 25  1  0
 12 17  1  0
 13 24  1  0
 14 20  1  0
 14 22  1  0
 14 24  1  0
 16 17  1  0
 16 20  1  0
 16 28  1  0
 19 28  1  0
 21 27  2  0
 23 24  1  0
 23 29  1  0
 25 26  1  0
 25 28  1  0
M  END
>  <ID>  (1) 
conformer_0

$$$$
