
     RDKit          3D

 31 34  0  0  0  0  0  0  0  0999 V2000
   99.3537   45.7756   75.7641 C   0  0  0  0  0  0  0  0  0  0  0  0
   95.7064   51.5669   71.5592 C   0  0  0  0  0  0  0  0  0  0  0  0
   93.0530   46.4485   72.7869 C   0  0  0  0  0  0  0  0  0  0  0  0
   93.2608   48.3400   70.7386 C   0  0  0  0  0  0  0  0  0  0  0  0
   96.0553   46.4140   72.3655 C   0  0  0  0  0  0  0  0  0  0  0  0
   95.2271   47.7924   72.0384 C   0  0  0  0  0  0  0  0  0  0  0  0
   91.1049   47.0059   71.4359 C   0  0  0  0  0  0  0  0  0  0  0  0
   96.6314   52.5860   71.6306 C   0  0  0  0  0  0  0  0  0  0  0  0
   95.7963   50.5165   72.4584 C   0  0  0  0  0  0  0  0  0  0  0  0
   92.7766   47.5578   69.5840 C   0  0  0  0  0  0  0  0  0  0  0  0
   95.3655   46.4415   74.7998 O   0  0  0  0  0  0  0  0  0  0  0  0
   97.5497   46.9704   74.3962 N   0  0  0  0  0  0  0  0  0  0  0  0
   98.8070   46.4263   74.3869 C   0  0  0  0  0  0  0  0  0  0  0  0
   97.7506   51.4966   73.4639 C   0  0  0  0  0  0  0  0  0  0  0  0
   93.7758   47.3802   71.7954 C   0  0  0  0  0  0  0  0  0  0  0  0
  100.1415   44.5070   75.5165 C   0  0  0  0  0  0  0  0  0  0  0  0
  100.1495   46.6797   76.4292 O   0  0  0  0  0  0  0  0  0  0  0  0
   91.5871   46.6692   70.0413 C   0  0  0  0  0  0  0  0  0  0  0  0
   96.7851   50.4906   73.4101 C   0  0  0  0  0  0  0  0  0  0  0  0
   90.5933   45.0895   72.7067 C   0  0  0  0  0  0  0  0  0  0  0  0
   90.4671   46.7471   68.9998 C   0  0  0  0  0  0  0  0  0  0  0  0
   94.9562   49.3036   72.4855 C   0  0  0  0  0  0  0  0  0  0  0  0
   97.6319   52.5469   72.5569 C   0  0  0  0  0  0  0  0  0  0  0  0
   95.6935   48.3755   73.4631 C   0  0  0  0  0  0  0  0  0  0  0  0
   96.6721   49.2966   74.2297 C   0  0  0  0  0  0  0  0  0  0  0  0
   90.9200   44.1034   73.5831 N   0  0  0  0  0  0  0  0  0  0  0  0
   98.1915   45.4006   76.5011 O   0  0  0  0  0  0  0  0  0  0  0  0
   89.4692   45.0953   72.1668 O   0  0  0  0  0  0  0  0  0  0  0  0
   91.6315   46.1021   72.4985 N   0  0  0  0  0  0  0  0  0  0  0  0
   99.4639   46.1984   73.2225 O   0  0  0  0  0  0  0  0  0  0  0  0
   96.2234   46.9092   73.9166 C   0  0  0  0  0  0  0  0  0  0  0  0
  1 13  1  0
  1 16  1  0
  1 17  1  0
  1 27  1  0
  2  8  1  0
  2  9  1  0
  3 15  1  0
  3 29  1  0
  4 10  1  0
  4 15  1  0
  5  6  1  0
  5 31  1  0
  6 15  1  0
  6 22  1  0
  7 18  1  0
  7 29  1  0
  8 23  2  0
  9 19  2  0
  9 22  1  0
 10 18  1  0
 11 31  1  0
 12 13  1  0
 12 31  1  0
 13 30  2  0
 14 19  1  0
 14 23  1  0
 18 21  1  0
 19 25  1  0
 20 26  1  0
 20 28  2  0
 20 29  1  0
 22 24  1  0
 24 25  1  0
 24 31  1  0
M  END
>  <ID>  (1) 
conformer_0

$$$$
