
     RDKit          3D

 26 26  0  0  0  0  0  0  0  0999 V2000
   94.0879   47.2837   71.4349 N   0  0  0  0  0  0  0  0  0  0  0  0
   95.6639   46.8677   74.5064 C   0  0  0  0  0  0  0  0  0  0  0  0
   94.5294   46.4219   74.1620 O   0  0  0  0  0  0  0  0  0  0  0  0
   91.5877   46.3917   71.6523 C   0  0  0  0  0  0  0  0  0  0  0  0
   94.9411   48.5372   71.5868 C   0  0  0  0  0  0  0  0  0  0  0  0
   94.8374   51.6343   71.7464 C   0  0  0  0  0  0  0  0  0  0  0  0
   95.8060   51.6044   74.0390 C   0  0  0  0  0  0  0  0  0  0  0  0
   97.4603   46.4114   76.0690 O   0  0  0  0  0  0  0  0  0  0  0  0
   89.4814   45.0873   72.2091 N   0  0  0  0  0  0  0  0  0  0  0  0
   95.7013   50.7978   72.6944 C   0  0  0  0  0  0  0  0  0  0  0  0
   99.0856   44.4378   76.0785 O   0  0  0  0  0  1  0  0  0  0  0  0
   99.0675   45.9415   75.9366 P   0  0  0  0  0  4  0  0  0  0  0  0
   95.0064   49.4174   72.9107 C   0  0  0  0  0  0  0  0  0  0  0  0
   97.1386   50.5506   72.0806 C   0  0  0  0  0  0  0  0  0  0  0  0
   94.9029   49.1531   74.4606 C   0  0  0  0  0  0  0  0  0  0  0  0
   99.8626   46.7238   76.9198 O   0  0  0  0  0  0  0  0  0  0  0  0
   92.7700   47.1310   70.8220 C   0  0  0  0  0  0  0  0  0  0  0  0
   90.8034   48.1476   69.9256 C   0  0  0  0  0  0  0  0  0  0  0  0
   93.0658   48.8691   69.0688 O   0  0  0  0  0  0  0  0  0  0  0  0
   90.8120   45.1103   72.3389 C   0  0  0  0  0  0  0  0  0  0  0  0
   95.9349   48.1908   74.8075 O   0  0  0  0  0  0  0  0  0  0  0  0
   96.7242   45.9450   74.8749 C   0  0  0  0  0  0  0  0  0  0  0  0
   92.2779   48.3221   70.0302 C   0  0  0  0  0  0  0  0  0  0  0  0
   91.4023   44.1700   72.9235 O   0  0  0  0  0  0  0  0  0  0  0  0
   99.4655   46.4206   74.3246 C   0  0  0  0  0  0  0  0  0  0  0  0
   90.3211   47.1370   70.9759 C   0  0  0  0  0  0  0  0  0  0  0  0
  1  5  1  0
  1 17  1  0
  2  3  2  0
  2 21  1  0
  2 22  1  0
  4 17  1  0
  4 20  1  0
  4 26  1  0
  5 13  1  0
  6 10  1  0
  7 10  1  0
  8 12  1  0
  8 22  1  0
  9 20  1  0
 10 13  1  0
 10 14  1  0
 11 12  2  0
 12 16  1  0
 12 25  1  0
 13 15  1  0
 15 21  1  0
 17 23  1  0
 18 23  1  0
 18 26  1  0
 19 23  1  0
 20 24  2  0
M  END
>  <ID>  (1) 
conformer_0

$$$$
