
     RDKit          3D

 22 22  0  0  0  0  0  0  0  0999 V2000
   92.4089   51.4067   71.1180 C   0  0  0  0  0  0  0  0  0  0  0  0
   98.0859   47.1429   73.4937 O   0  0  0  0  0  0  0  0  0  0  0  0
   91.4064   45.0118   71.9436 C   0  0  0  0  0  0  0  0  0  0  0  0
   96.7786   46.8693   73.7547 C   0  0  0  0  0  0  0  0  0  0  0  0
   91.2357   47.6327   71.1010 C   0  0  0  0  0  0  0  0  0  0  0  0
   95.9084   46.9868   72.5029 C   0  0  0  0  0  0  0  0  0  0  0  0
   99.2657   44.0080   74.4567 O   0  0  0  0  0  1  0  0  0  0  0  0
   99.0958   46.7685   74.4330 C   0  0  0  0  0  0  0  0  0  0  0  0
   97.3957   44.9298   75.8174 O   0  0  0  0  0  0  0  0  0  0  0  0
   94.4588   47.2916   73.0121 C   0  0  0  0  0  0  0  0  0  0  0  0
   92.4197   45.8485   72.2334 C   0  0  0  0  0  0  0  0  0  0  0  0
   93.5705   48.0166   72.1358 C   0  0  0  0  0  0  0  0  0  0  0  0
   93.5730   49.3601   71.7779 O   0  0  0  0  0  0  0  0  0  0  0  0
   92.3746   47.2046   71.8201 C   0  0  0  0  0  0  0  0  0  0  0  0
   99.7569   45.2076   76.6757 O   0  0  0  0  0  0  0  0  0  0  0  0
   95.9036   47.1038   76.1992 O   0  0  0  0  0  1  0  0  0  0  0  0
   96.1122   47.6492   75.0048 P   0  0  0  0  0  4  0  0  0  0  0  0
   90.2015   46.8141   70.8334 C   0  0  0  0  0  0  0  0  0  0  0  0
   92.3000   49.9582   71.2511 C   0  0  0  0  0  0  0  0  0  0  0  0
   95.8182   48.9952   74.8949 O   0  0  0  0  0  0  0  0  0  0  0  0
   98.8366   45.1524   75.3653 P   0  0  0  0  0  4  0  0  0  0  0  0
   90.2728   45.4807   71.2586 C   0  0  0  0  0  0  0  0  0  0  0  0
  1 19  1  0
  2  4  1  0
  2  8  1  0
  3 11  2  0
  3 22  1  0
  4  6  1  0
  4 17  1  0
  5 14  1  0
  5 18  2  0
  6 10  1  0
  7 21  2  0
  8 21  1  0
  9 21  1  0
 10 12  1  0
 11 14  1  0
 12 13  1  0
 12 14  2  3
 13 19  1  0
 15 21  1  0
 16 17  2  0
 17 20  1  0
 18 22  1  0
M  END
>  <ID>  (1) 
conformer_0

$$$$
