
     RDKit          3D

 37 39  0  0  0  0  0  0  0  0999 V2000
   32.4888   33.5885  101.4262 O   0  0  0  0  0  0  0  0  0  0  0  0
   29.6182   34.3521  104.0249 C   0  0  0  0  0  0  0  0  0  0  0  0
   28.2913   32.4830  103.2448 O   0  0  0  0  0  0  0  0  0  0  0  0
   30.5845   32.6779  102.6416 C   0  0  0  0  0  0  0  0  0  0  0  0
   23.7133   35.9336   99.9778 C   0  0  0  0  0  0  0  0  0  0  0  0
   21.2720   32.4321  107.5732 C   0  0  0  0  0  0  0  0  0  0  0  0
   25.6718   37.2146  100.5493 C   0  0  0  0  0  0  0  0  0  0  0  0
   19.9434   31.8908  107.6610 C   0  0  0  0  0  0  0  0  0  0  0  0
   20.9081   33.5835  109.6107 O   0  0  0  0  0  0  0  0  0  0  0  0
   30.4961   31.7152  101.4735 C   0  0  0  0  0  0  0  0  0  0  0  0
   30.9334   34.8385  104.4098 C   0  0  0  0  0  0  0  0  0  0  0  0
   29.4492   33.1521  103.3769 C   0  0  0  0  0  0  0  0  0  0  0  0
   24.6300   36.9392   99.7211 N   0  0  0  0  0  0  0  0  0  0  0  0
   31.6549   33.9994  105.3827 C   0  0  0  0  0  0  0  0  0  0  0  0
   31.6352   34.8287  103.2346 N   0  0  0  0  0  0  0  0  0  0  0  0
   26.2302   35.2161  103.9365 C   0  0  0  0  0  0  0  0  0  0  0  0
   29.0495   36.5690  103.8735 O   0  0  0  0  0  0  0  0  0  0  0  0
   28.6248   35.4545  104.1741 C   0  0  0  0  0  0  0  0  0  0  0  0
   25.0935   34.2006  107.2239 C   0  0  0  0  0  0  0  0  0  0  0  0
   26.5263   34.8866  105.4715 C   0  0  0  0  0  0  0  0  0  0  0  0
   31.6035   33.6951  102.4352 C   0  0  0  0  0  0  0  0  0  0  0  0
   23.4682   34.5506  109.5746 O   0  0  0  0  0  0  0  0  0  0  0  0
   21.7245   33.2489  108.5548 C   0  0  0  0  0  0  0  0  0  0  0  0
   30.3850   32.3013  100.1889 F   0  0  0  0  0  0  0  0  0  0  0  0
   25.8015   34.5705  108.1143 O   0  0  0  0  0  0  0  0  0  0  0  0
   23.0047   33.8043  108.4747 C   0  0  0  0  0  0  0  0  0  0  0  0
   25.5050   34.4502  105.9563 N   0  0  0  0  0  0  0  0  0  0  0  0
   25.8845   36.5720  101.6398 C   0  0  0  0  0  0  0  0  0  0  0  0
   27.2436   35.2217  104.4825 C   0  0  0  0  0  0  0  0  0  0  0  0
   22.6935   35.7077   99.1482 F   0  0  0  0  0  0  0  0  0  0  0  0
   23.3506   32.7233  106.3537 C   0  0  0  0  0  0  0  0  0  0  0  0
   25.1518   34.9946  103.2477 N   0  0  0  0  0  0  0  0  0  0  0  0
   23.7801   33.5747  107.3535 C   0  0  0  0  0  0  0  0  0  0  0  0
   24.9729   35.5583  101.9595 C   0  0  0  0  0  0  0  0  0  0  0  0
   23.9027   35.1547  101.1691 S   0  0  0  0  0  0  0  0  0  0  0  0
   29.8049   30.4976  101.5862 F   0  0  0  0  0  0  0  0  0  0  0  0
   22.0785   32.1579  106.4743 C   0  0  0  0  0  0  0  0  0  0  0  0
  1 21  2  0
  2 11  1  0
  2 12  1  0
  2 18  1  0
  3 12  1  0
  4 10  1  0
  4 12  1  0
  4 21  1  0
  5 13  2  0
  5 30  1  0
  5 35  1  0
  6  8  1  0
  6 23  2  0
  6 37  1  0
  7 13  1  0
  7 28  2  0
  9 23  1  0
 10 24  1  0
 10 36  1  0
 11 14  1  0
 11 15  1  0
 15 21  1  0
 16 29  1  0
 16 32  1  0
 17 18  2  0
 18 29  1  0
 19 25  2  0
 19 27  1  0
 19 33  1  0
 20 27  2  3
 20 29  1  0
 22 26  1  0
 23 26  1  0
 26 33  1  0
 28 34  1  0
 31 33  2  0
 31 37  1  0
 32 34  2  3
 34 35  1  0
M  END
>  <ID>  (1) 
conformer_0

$$$$
