
     RDKit          3D

 26 28  0  0  0  0  0  0  0  0999 V2000
   24.3679   33.5705  107.4766 N   0  0  0  0  0  0  0  0  0  0  0  0
   31.3256   35.1905  103.3807 N   0  0  0  0  0  0  0  0  0  0  0  0
   26.0971   35.2254  103.2185 C   0  0  0  0  0  0  0  0  0  0  0  0
   26.8925   36.0329  102.3652 C   0  0  0  0  0  0  0  0  0  0  0  0
   23.2931   34.2413  105.4184 C   0  0  0  0  0  0  0  0  0  0  0  0
   29.1824   33.3602  103.2687 C   0  0  0  0  0  0  0  0  0  0  0  0
   24.2958   35.2578  101.6792 C   0  0  0  0  0  0  0  0  0  0  0  0
   24.4153   36.8789   99.9895 O   0  0  0  0  0  0  0  0  0  0  0  0
   26.6790   33.6714  107.6891 O   0  0  0  0  0  0  0  0  0  0  0  0
   23.0838   33.6625  106.8214 C   0  0  0  0  0  0  0  0  0  0  0  0
   25.6653   33.9971  107.0462 C   0  0  0  0  0  0  0  0  0  0  0  0
   32.5833   33.7333  102.1084 O   0  0  0  0  0  0  0  0  0  0  0  0
   22.2920   32.5379  106.7869 O   0  0  0  0  0  0  0  0  0  0  0  0
   29.0379   34.6706  103.8922 C   0  0  0  0  0  0  0  0  0  0  0  0
   26.3674   36.5355  101.2414 C   0  0  0  0  0  0  0  0  0  0  0  0
   24.8778   34.7614  102.8014 C   0  0  0  0  0  0  0  0  0  0  0  0
   25.8074   34.6847  105.7481 C   0  0  0  0  0  0  0  0  0  0  0  0
   24.4189   35.3101  105.4892 C   0  0  0  0  0  0  0  0  0  0  0  0
   23.3274   36.1031   99.6052 O   0  0  0  0  0  0  0  0  0  0  0  0
   25.0216   36.2514  100.9424 C   0  0  0  0  0  0  0  0  0  0  0  0
   26.6693   34.8809  104.5709 C   0  0  0  0  0  0  0  0  0  0  0  0
   30.1221   35.6833  103.7540 C   0  0  0  0  0  0  0  0  0  0  0  0
   30.4451   32.9894  102.8132 C   0  0  0  0  0  0  0  0  0  0  0  0
   27.9956   34.9485  104.6590 N   0  0  0  0  0  0  0  0  0  0  0  0
   29.8570   36.8852  103.8433 O   0  0  0  0  0  0  0  0  0  0  0  0
   31.4807   33.9907  102.8565 N   0  0  0  0  0  0  0  0  0  0  0  0
  1 10  1  0
  1 11  1  0
  2 22  1  0
  2 26  1  0
  3  4  2  0
  3 16  1  0
  3 21  1  0
  4 15  1  0
  5 10  1  0
  5 18  1  0
  6 14  2  0
  6 23  1  0
  7 16  2  0
  7 20  1  0
  8 19  1  0
  8 20  1  0
  9 11  2  0
 10 13  1  0
 11 17  1  0
 12 26  1  0
 14 22  1  0
 14 24  1  0
 15 20  2  0
 17 18  1  0
 17 21  1  0
 21 24  1  0
 22 25  2  0
 23 26  1  0
M  END
>  <ID>  (1) 
conformer_0

$$$$
