
     RDKit          3D

 23 22  0  0  0  0  0  0  0  0999 V2000
   25.0705   34.3747  108.3424 O   0  0  0  0  0  0  0  0  0  0  0  0
   24.4214   33.9150  107.3717 C   0  0  0  0  0  0  0  0  0  0  0  0
   27.4823   34.7948  103.7217 C   0  0  0  0  0  0  0  0  0  0  0  0
   32.4061   33.9620  101.8952 O   0  0  0  0  0  0  0  0  0  0  0  0
   25.2908   36.3768  100.8279 C   0  0  0  0  0  0  0  0  0  0  0  0
   25.4884   35.4357  102.0182 C   0  0  0  0  0  0  0  0  0  0  0  0
   24.5105   33.5292  104.8700 C   0  0  0  0  0  0  0  0  0  0  0  0
   32.1298   34.8692  105.0144 O   0  0  0  0  0  0  0  0  0  0  0  0
   31.7174   33.6237  102.9589 C   0  0  0  0  0  0  0  0  0  0  0  0
   31.3019   32.4265  103.0602 O   0  0  0  0  0  0  0  0  0  0  0  0
   26.2988   34.9520  106.1341 C   0  0  0  0  0  0  0  0  0  0  0  0
   29.3385   36.3460  103.4477 C   0  0  0  0  0  0  0  0  0  0  0  0
   29.8814   34.2177  104.4588 C   0  0  0  0  0  0  0  0  0  0  0  0
   26.1720   36.2845   99.9383 O   0  0  0  0  0  0  0  0  0  0  0  0
   30.2978   37.1229  103.7037 O   0  0  0  0  0  0  0  0  0  0  0  0
   24.7062   34.5606  106.0264 C   0  0  0  0  0  0  0  0  0  0  0  0
   26.5484   35.5726  104.7316 C   0  0  0  0  0  0  0  0  0  0  0  0
   31.2533   34.6473  103.9411 C   0  0  0  0  0  0  0  0  0  0  0  0
   25.5041   32.7894  103.7527 C   0  0  0  0  0  0  0  0  0  0  0  0
   28.8587   35.1735  104.1059 C   0  0  0  0  0  0  0  0  0  0  0  0
   23.3950   33.1664  107.3657 O   0  0  0  0  0  0  0  0  0  0  0  0
   27.0873   35.4295  102.2851 C   0  0  0  0  0  0  0  0  0  0  0  0
   24.5566   37.3484  101.1072 O   0  0  0  0  0  0  0  0  0  0  0  0
  1  2  2  0
  2 16  1  0
  2 21  1  0
  3 17  1  0
  3 20  1  0
  3 22  1  0
  4  9  2  0
  5  6  1  0
  5 14  2  0
  5 23  1  0
  6 22  1  0
  7 16  1  0
  7 19  1  0
  8 18  1  0
  9 10  1  0
  9 18  1  0
 11 16  1  0
 11 17  1  0
 12 15  2  0
 12 20  1  0
 13 18  1  0
 13 20  1  0
M  END
>  <ID>  (1) 
conformer_0

$$$$
