
     RDKit          3D

 22 23  0  0  0  0  0  0  0  0999 V2000
   28.7365   33.5025  102.9798 C   0  0  0  0  0  0  0  0  0  0  0  0
   22.7296   35.7399  105.4780 C   0  0  0  0  0  0  0  0  0  0  0  0
   30.0065   33.0955  102.7365 C   0  0  0  0  0  0  0  0  0  0  0  0
   30.8739   35.0638  103.6816 N   0  0  0  0  0  0  0  0  0  0  0  0
   22.0154   33.9588  107.2241 C   0  0  0  0  0  0  0  0  0  0  0  0
   19.9879   34.5702  105.7314 C   0  0  0  0  0  0  0  0  0  0  0  0
   28.4843   34.7692  103.4677 C   0  0  0  0  0  0  0  0  0  0  0  0
   31.8323   35.5967  104.4351 O   0  0  0  0  0  0  0  0  0  0  0  0
   27.1057   34.3695  105.7499 Cl  0  0  0  0  0  0  0  0  0  0  0  0
   30.2366   31.9053  102.0513 F   0  0  0  0  0  0  0  0  0  0  0  0
   26.6695   35.8822  102.6047 O   0  0  0  0  0  0  0  0  0  0  0  0
   20.5573   34.4853  107.1424 C   0  0  0  0  0  0  0  0  0  0  0  0
   24.8941   34.9453  104.9078 C   0  0  0  0  0  0  0  0  0  0  0  0
   27.0862   35.2539  103.5714 C   0  0  0  0  0  0  0  0  0  0  0  0
   23.9969   36.0471  104.9053 N   0  0  0  0  0  0  0  0  0  0  0  0
   22.8872   34.4996  106.0948 N   0  0  0  0  0  0  0  0  0  0  0  0
   29.5936   35.5948  103.7804 C   0  0  0  0  0  0  0  0  0  0  0  0
   31.0951   33.8835  103.0246 C   0  0  0  0  0  0  0  0  0  0  0  0
   32.2900   33.5375  102.6295 O   0  0  0  0  0  0  0  0  0  0  0  0
   26.3069   34.8756  104.6369 N   0  0  0  0  0  0  0  0  0  0  0  0
   29.4282   36.8603  104.1168 F   0  0  0  0  0  0  0  0  0  0  0  0
   24.2545   33.9885  105.9566 C   0  0  0  0  0  0  0  0  0  0  0  0
  1  3  2  0
  1  7  1  0
  2 15  1  0
  2 16  1  0
  3 10  1  0
  3 18  1  0
  4  8  1  0
  4 17  1  0
  4 18  1  0
  5 12  1  0
  5 16  1  0
  6 12  1  0
  7 14  1  0
  7 17  2  0
  9 20  1  0
 11 14  2  0
 13 15  2  0
 13 20  1  0
 13 22  1  0
 14 20  1  0
 16 22  1  0
 17 21  1  0
 18 19  2  0
M  END
>  <ID>  (1) 
conformer_0

$$$$
