
     RDKit          3D

 34 37  0  0  0  0  0  0  0  0999 V2000
   27.2187   34.0811  107.1199 O   0  0  0  0  0  0  0  0  0  0  0  0
   32.0933   33.2292  102.8861 C   0  0  0  0  0  0  0  0  0  0  0  0
   31.6411   35.9200  104.1494 O   0  0  0  0  0  0  0  0  0  0  0  0
   25.4273   35.2749  101.7070 C   0  0  0  0  0  0  0  0  0  0  0  0
   24.4481   34.1836  106.4100 C   0  0  0  0  0  0  0  0  0  0  0  0
   29.2605   35.2603  104.3971 C   0  0  0  0  0  0  0  0  0  0  0  0
   22.4477   32.9709  105.8125 C   0  0  0  0  0  0  0  0  0  0  0  0
   32.3047   33.8893  101.6079 C   0  0  0  0  0  0  0  0  0  0  0  0
   23.9984   36.0260   99.8715 O   0  0  0  0  0  0  0  0  0  0  0  0
   28.1326   33.8200   97.2595 O   0  0  0  0  0  0  0  0  0  0  0  0
   26.4774   35.3737   97.8759 C   0  0  0  0  0  0  0  0  0  0  0  0
   29.2714   36.5470  103.7159 O   0  0  0  0  0  0  0  0  0  0  0  0
   30.0575   32.5502  102.4224 O   0  0  0  0  0  0  0  0  0  0  0  0
   25.1962   36.2378  100.4584 C   0  0  0  0  0  0  0  0  0  0  0  0
   31.7927   33.9308  105.3493 C   0  0  0  0  0  0  0  0  0  0  0  0
   26.9159   34.8130  106.1556 C   0  0  0  0  0  0  0  0  0  0  0  0
   26.8595   35.5757  102.2477 C   0  0  0  0  0  0  0  0  0  0  0  0
   27.8048   35.3922  105.1293 C   0  0  0  0  0  0  0  0  0  0  0  0
   28.6920   36.0491   97.2354 O   0  0  0  0  0  0  0  0  0  0  0  0
   23.0488   34.3490  105.8462 C   0  0  0  0  0  0  0  0  0  0  0  0
   25.4431   35.1225  104.2342 C   0  0  0  0  0  0  0  0  0  0  0  0
   26.3356   35.7440   99.3792 C   0  0  0  0  0  0  0  0  0  0  0  0
   22.3095   33.6767  106.9787 O   0  0  0  0  0  0  0  0  0  0  0  0
   23.6318   32.0295  105.8905 C   0  0  0  0  0  0  0  0  0  0  0  0
   24.6784   32.8008  106.5470 O   0  0  0  0  0  0  0  0  0  0  0  0
   33.1863   33.9289  105.0599 O   0  0  0  0  0  0  0  0  0  0  0  0
   30.5685   33.6208  103.3199 C   0  0  0  0  0  0  0  0  0  0  0  0
   29.0061   34.0442  103.5118 O   0  0  0  0  0  0  0  0  0  0  0  0
   25.4984   34.9467  105.7103 C   0  0  0  0  0  0  0  0  0  0  0  0
   30.8901   34.7637  104.3703 C   0  0  0  0  0  0  0  0  0  0  0  0
   24.5102   35.3307  102.9890 C   0  0  0  0  0  0  0  0  0  0  0  0
   25.3925   37.5178  100.9093 O   0  0  0  0  0  0  0  0  0  0  0  0
   27.9040   35.0495   97.5236 C   0  0  0  0  0  0  0  0  0  0  0  0
   26.8464   35.4430  103.8429 C   0  0  0  0  0  0  0  0  0  0  0  0
  1 16  2  0
  2  8  1  0
  2 27  1  0
  3 30  1  0
  4 14  1  0
  4 17  1  0
  4 31  1  0
  5 20  1  0
  5 25  1  0
  5 29  1  0
  6 12  1  0
  6 18  1  0
  6 28  1  0
  6 30  1  0
  7 20  1  0
  7 23  1  0
  7 24  1  0
  9 14  1  0
 10 33  2  0
 11 22  1  0
 11 33  1  0
 13 27  1  0
 14 22  1  0
 14 32  1  0
 15 26  1  0
 15 30  1  0
 16 18  1  0
 16 29  1  0
 17 34  1  0
 18 34  2  0
 19 33  1  0
 21 29  1  0
 21 31  1  0
 21 34  1  0
 24 25  1  0
 27 28  1  0
 27 30  1  0
M  END
>  <ID>  (1) 
conformer_0

$$$$
