
     RDKit          3D

 28 28  0  0  0  0  0  0  0  0999 V2000
   30.7679   34.4618  105.4986 C   0  0  0  0  0  0  0  0  0  0  0  0
   25.0098   35.1711  102.8812 C   0  0  0  0  0  0  0  0  0  0  0  0
   30.5257   35.1983  104.3248 C   0  0  0  0  0  0  0  0  0  0  0  0
   24.1353   36.6572   99.7886 N   0  0  0  0  0  0  0  0  0  0  0  0
   23.2002   35.7670   99.5287 N   0  0  0  0  0  0  0  0  0  0  0  0
   32.4503   33.4787  104.2075 O   0  0  0  0  0  0  0  0  0  0  0  0
   29.9797   34.0213  106.4724 F   0  0  0  0  0  0  0  0  0  0  0  0
   29.3381   32.8692  103.0246 F   0  0  0  0  0  0  0  0  0  0  0  0
   27.2709   33.4094  107.4501 O   0  0  0  0  0  0  0  0  0  0  0  0
   32.0485   33.9177  105.5170 F   0  0  0  0  0  0  0  0  0  0  0  0
   29.0089   36.7017  103.4751 O   0  0  0  0  0  0  0  0  0  0  0  0
   24.8753   36.5918  100.9130 C   0  0  0  0  0  0  0  0  0  0  0  0
   25.5511   35.1031  108.0195 O   0  0  0  0  0  0  0  0  0  0  0  0
   32.5345   33.7544  101.7911 O   0  0  0  0  0  0  0  0  0  0  0  0
   30.6711   32.6501  102.7495 C   0  0  0  0  0  0  0  0  0  0  0  0
   31.7818   33.7120  102.9679 C   0  0  0  0  0  0  0  0  0  0  0  0
   31.1451   35.0030  103.1360 N   0  0  0  0  0  0  0  0  0  0  0  0
   24.0192   34.7848  103.7787 C   0  0  0  0  0  0  0  0  0  0  0  0
   28.2093   35.0512  105.0262 C   0  0  0  0  0  0  0  0  0  0  0  0
   24.4324   34.4879  105.0177 C   0  0  0  0  0  0  0  0  0  0  0  0
   26.7987   34.8973  104.5897 C   0  0  0  0  0  0  0  0  0  0  0  0
   25.6357   37.4560  101.1777 O   0  0  0  0  0  0  0  0  0  0  0  0
   25.7412   34.5021  105.4854 C   0  0  0  0  0  0  0  0  0  0  0  0
   29.1749   35.7241  104.1969 C   0  0  0  0  0  0  0  0  0  0  0  0
   26.3736   35.2240  103.3036 C   0  0  0  0  0  0  0  0  0  0  0  0
   25.9118   33.9389  107.1854 S   0  0  0  0  0  4  0  0  0  0  0  0
   24.5563   35.4722  101.6129 N   0  0  0  0  0  0  0  0  0  0  0  0
   24.8902   32.8752  107.2799 O   0  0  0  0  0  0  0  0  0  0  0  0
  1  3  1  0
  1  7  1  0
  1 10  1  0
  2 18  2  0
  2 25  1  0
  2 27  1  0
  3 17  1  0
  3 24  1  0
  4  5  1  0
  4 12  1  0
  6 16  1  0
  8 15  1  0
  9 26  1  0
 11 24  2  0
 12 22  2  0
 12 27  1  0
 13 26  1  0
 14 16  1  0
 15 16  1  0
 16 17  1  0
 18 20  1  0
 19 21  1  0
 19 24  1  0
 20 23  2  0
 21 23  1  0
 21 25  2  0
 23 26  1  0
 26 28  1  0
M  END
>  <ID>  (1) 
conformer_0

$$$$
