
     RDKit          3D

 26 27  0  0  0  0  0  0  0  0999 V2000
   29.6513   35.9842  104.0768 C   0  0  0  0  0  0  0  0  0  0  0  0
   30.6285   34.2854  103.0919 C   0  0  0  0  0  0  0  0  0  0  0  0
   29.7923   37.0093  103.6047 O   0  0  0  0  0  0  0  0  0  0  0  0
   25.2718   34.6333  105.1904 C   0  0  0  0  0  0  0  0  0  0  0  0
   23.1099   32.3018  105.9627 O   0  0  0  0  0  0  0  0  0  0  0  0
   27.4246   35.2029  103.5846 C   0  0  0  0  0  0  0  0  0  0  0  0
   26.1720   35.2586  103.0349 C   0  0  0  0  0  0  0  0  0  0  0  0
   24.1275   34.5333  106.1887 C   0  0  0  0  0  0  0  0  0  0  0  0
   32.7161   33.4323  102.3321 O   0  0  0  0  0  0  0  0  0  0  0  0
   31.0764   34.1947  105.3847 C   0  0  0  0  0  0  0  0  0  0  0  0
   23.4835   36.3459   99.5818 O   0  0  0  0  0  0  0  0  0  0  0  0
   30.0174   34.6957  104.4250 C   0  0  0  0  0  0  0  0  0  0  0  0
   22.9216   33.8016  105.5992 C   0  0  0  0  0  0  0  0  0  0  0  0
   24.6732   35.5145  101.3190 N   0  0  0  0  0  0  0  0  0  0  0  0
   24.4415   34.0703  107.6068 C   0  0  0  0  0  0  0  0  0  0  0  0
   25.0915   34.9723  103.8561 C   0  0  0  0  0  0  0  0  0  0  0  0
   31.9154   33.7686  103.2956 C   0  0  0  0  0  0  0  0  0  0  0  0
   27.6430   34.6611  104.8212 C   0  0  0  0  0  0  0  0  0  0  0  0
   24.4869   36.5544  100.3027 C   0  0  0  0  0  0  0  0  0  0  0  0
   26.5875   34.4013  105.6587 C   0  0  0  0  0  0  0  0  0  0  0  0
   25.1703   37.6193  100.5751 O   0  0  0  0  0  0  0  0  0  0  0  0
   25.6065   33.9602  108.0769 O   0  0  0  0  0  0  0  0  0  0  0  0
   28.8773   34.1895  105.2579 O   0  0  0  0  0  0  0  0  0  0  0  0
   32.1916   33.6887  104.7173 C   0  0  0  0  0  0  0  0  0  0  0  0
   26.1030   35.5371  101.6149 C   0  0  0  0  0  0  0  0  0  0  0  0
   23.3888   34.1048  108.3659 O   0  0  0  0  0  0  0  0  0  0  0  0
  1  3  1  0
  1 12  1  0
  2 12  1  0
  2 17  1  0
  4  8  1  0
  4 16  2  0
  4 20  1  0
  5 13  1  0
  6  7  2  0
  6 18  1  0
  7 16  1  0
  7 25  1  0
  8 13  1  0
  8 15  1  0
  9 17  1  0
 10 12  1  0
 10 24  1  0
 11 19  2  0
 12 23  1  0
 14 19  1  0
 14 25  1  0
 15 22  2  0
 15 26  1  0
 17 24  1  0
 18 20  2  0
 18 23  1  0
 19 21  1  0
M  END
>  <ID>  (1) 
conformer_0

$$$$
