
     RDKit          3D

 27 28  0  0  0  0  0  0  0  0999 V2000
   23.8868   35.7390   99.9848 N   0  0  0  0  0  0  0  0  0  0  0  0
   24.8446   35.2099  102.2493 C   0  0  0  0  0  0  0  0  0  0  0  0
   30.5495   35.0643  103.8299 C   0  0  0  0  0  0  0  0  0  0  0  0
   23.2500   34.0490  107.7436 O   0  0  0  0  0  0  0  0  0  0  0  0
   29.3470   37.2686  104.0060 F   0  0  0  0  0  0  0  0  0  0  0  0
   22.7269   32.7874  105.2512 C   0  0  0  0  0  0  0  0  0  0  0  0
   30.4861   32.5200  102.6914 C   0  0  0  0  0  0  0  0  0  0  0  0
   29.3055   33.0861  103.0596 C   0  0  0  0  0  0  0  0  0  0  0  0
   24.8352   37.3315  101.2375 O   0  0  0  0  0  0  0  0  0  0  0  0
   28.1862   36.6886  103.8356 O   0  0  0  0  0  0  0  0  0  0  0  0
   31.6407   37.1198  104.3819 O   0  0  0  0  0  0  0  0  0  0  0  0
   24.4408   36.1256  101.1089 C   0  0  0  0  0  0  0  0  0  0  0  0
   25.4625   34.3288  107.4564 O   0  0  0  0  0  0  0  0  0  0  0  0
   24.7976   33.9567  104.4338 C   0  0  0  0  0  0  0  0  0  0  0  0
   31.7258   34.2870  104.0650 C   0  0  0  0  0  0  0  0  0  0  0  0
   30.5262   36.4824  104.0468 C   0  0  0  0  0  0  0  0  0  0  0  0
   26.1679   35.3571  102.5212 C   0  0  0  0  0  0  0  0  0  0  0  0
   28.1946   35.2802  103.6652 C   0  0  0  0  0  0  0  0  0  0  0  0
   26.1820   34.1255  104.5391 C   0  0  0  0  0  0  0  0  0  0  0  0
   32.2862   34.2269  105.3641 C   0  0  0  0  0  0  0  0  0  0  0  0
   24.3015   33.9749  106.9780 C   0  0  0  0  0  0  0  0  0  0  0  0
   29.3262   34.4785  103.5285 C   0  0  0  0  0  0  0  0  0  0  0  0
   31.7447   33.1604  103.1560 N   0  0  0  0  0  0  0  0  0  0  0  0
   26.8230   34.8565  103.5787 C   0  0  0  0  0  0  0  0  0  0  0  0
   32.3917   33.6708  101.9498 O   0  0  0  0  0  0  0  0  0  0  0  0
   24.1364   34.4110  103.1901 C   0  0  0  0  0  0  0  0  0  0  0  0
   24.0553   33.4067  105.6117 C   0  0  0  0  0  0  0  0  0  0  0  0
  1 12  1  0
  2 12  1  0
  2 17  2  0
  2 26  1  0
  3 15  1  0
  3 16  2  3
  3 22  1  0
  4 21  2  0
  5 10  1  0
  6 27  1  0
  7  8  1  0
  7 23  1  0
  8 22  2  0
  9 12  2  0
 10 18  1  0
 11 16  1  0
 13 21  1  0
 14 19  1  0
 14 26  2  0
 14 27  1  0
 15 20  1  0
 15 23  1  0
 17 24  1  0
 18 22  1  0
 18 24  1  0
 19 24  2  0
 21 27  1  0
 23 25  1  0
M  END
>  <ID>  (1) 
conformer_0

$$$$
