
     RDKit          3D

 26 28  0  0  0  0  0  0  0  0999 V2000
   22.4082   34.1894  109.6734 O   0  0  0  0  0  0  0  0  0  0  0  0
   25.5893   36.7543  100.6296 C   0  0  0  0  0  0  0  0  0  0  0  0
   24.5027   35.1438  101.9106 N   0  0  0  0  0  0  0  0  0  0  0  0
   32.3616   33.7259  102.0611 O   0  0  0  0  0  0  0  0  0  0  0  0
   28.2282   34.2459  104.3231 N   0  0  0  0  0  0  0  0  0  0  0  0
   31.4207   33.4572  102.9346 C   0  0  0  0  0  0  0  0  0  0  0  0
   30.3361   32.7182  102.6316 O   0  0  0  0  0  0  0  0  0  0  0  0
   28.1577   36.3938  103.7570 C   0  0  0  0  0  0  0  0  0  0  0  0
   24.4316   35.9279  100.6526 C   0  0  0  0  0  0  0  0  0  0  0  0
   31.8216   34.2754  105.3522 C   0  0  0  0  0  0  0  0  0  0  0  0
   25.6887   35.5774  102.5668 C   0  0  0  0  0  0  0  0  0  0  0  0
   23.5454   35.9406   99.6200 N   0  0  0  0  0  0  0  0  0  0  0  0
   23.1524   34.8474  106.1597 C   0  0  0  0  0  0  0  0  0  0  0  0
   26.3659   36.4926  101.7464 C   0  0  0  0  0  0  0  0  0  0  0  0
   31.1862   34.5116  104.0004 C   0  0  0  0  0  0  0  0  0  0  0  0
   29.6704   34.8987  104.0953 N   0  0  0  0  0  0  0  0  0  0  0  0
   25.2008   34.7405  104.8576 C   0  0  0  0  0  0  0  0  0  0  0  0
   30.3297   37.0811  103.6855 O   0  0  0  0  0  0  0  0  0  0  0  0
   25.2070   34.2474  107.2633 C   0  0  0  0  0  0  0  0  0  0  0  0
   26.0312   35.1534  103.8539 C   0  0  0  0  0  0  0  0  0  0  0  0
   24.5278   34.6309  106.0810 C   0  0  0  0  0  0  0  0  0  0  0  0
   22.4499   34.7180  107.3514 C   0  0  0  0  0  0  0  0  0  0  0  0
   29.4553   36.2154  103.8174 C   0  0  0  0  0  0  0  0  0  0  0  0
   27.4588   35.2574  103.9960 C   0  0  0  0  0  0  0  0  0  0  0  0
   23.1121   34.3258  108.5188 C   0  0  0  0  0  0  0  0  0  0  0  0
   24.5201   34.0607  108.4667 C   0  0  0  0  0  0  0  0  0  0  0  0
  1 25  1  0
  2  9  1  0
  2 14  1  0
  3  9  1  0
  3 11  1  0
  4  6  2  0
  5 16  1  0
  5 24  1  0
  6  7  1  0
  6 15  1  0
  8 23  1  0
  8 24  1  0
  9 12  2  0
 10 15  1  0
 11 14  1  0
 11 20  1  0
 13 21  1  0
 13 22  1  0
 15 16  1  0
 16 23  1  0
 17 20  2  0
 17 21  2  0
 18 23  2  0
 19 21  1  0
 19 26  2  0
 20 24  1  0
 22 25  2  0
 25 26  1  0
M  END
>  <ID>  (1) 
conformer_0

$$$$
