
     RDKit          3D

 35 38  0  0  0  0  0  0  0  0999 V2000
   23.5166   33.9481  108.8433 C   0  0  0  0  0  0  0  0  0  0  0  0
   27.9819   35.1616   97.3495 C   0  0  0  0  0  0  0  0  0  0  0  0
   28.4991   34.0080   97.2366 O   0  0  0  0  0  0  0  0  0  0  0  0
   25.4527   35.3677  101.6485 C   0  0  0  0  0  0  0  0  0  0  0  0
   30.8079   36.1301  103.6707 O   0  0  0  0  0  0  0  0  0  0  0  0
   24.5164   34.2253  106.6270 C   0  0  0  0  0  0  0  0  0  0  0  0
   26.6023   35.2182  100.6425 C   0  0  0  0  0  0  0  0  0  0  0  0
   25.4614   35.3412  103.1736 C   0  0  0  0  0  0  0  0  0  0  0  0
   24.4647   36.4148  101.3580 C   0  0  0  0  0  0  0  0  0  0  0  0
   25.4299   34.1576  105.6297 N   0  0  0  0  0  0  0  0  0  0  0  0
   27.3735   36.6150  103.6106 O   0  0  0  0  0  0  0  0  0  0  0  0
   31.0844   34.3102  105.6910 C   0  0  0  0  0  0  0  0  0  0  0  0
   22.2643   34.4684  108.4035 C   0  0  0  0  0  0  0  0  0  0  0  0
   23.3585   35.0412  104.8173 C   0  0  0  0  0  0  0  0  0  0  0  0
   31.7985   33.8166  104.5206 C   0  0  0  0  0  0  0  0  0  0  0  0
   24.6834   34.4749  104.3086 S   0  0  0  0  0  4  0  0  0  0  0  0
   24.6535   33.8504  107.9711 C   0  0  0  0  0  0  0  0  0  0  0  0
   24.1648   36.4309   99.9574 C   0  0  0  0  0  0  0  0  0  0  0  0
   26.6389   35.2074   97.7595 N   0  0  0  0  0  0  0  0  0  0  0  0
   29.1114   34.3670  103.4112 C   0  0  0  0  0  0  0  0  0  0  0  0
   29.9570   33.1398  102.9711 C   0  0  0  0  0  0  0  0  0  0  0  0
   28.6903   36.7590  103.6950 N   0  0  0  0  0  0  0  0  0  0  0  0
   29.5915   35.6883  103.6053 C   0  0  0  0  0  0  0  0  0  0  0  0
   23.1085   37.1679   99.5528 N   0  0  0  0  0  0  0  0  0  0  0  0
   33.1634   33.9317  104.6235 N   0  0  0  0  0  0  0  0  0  0  0  0
   24.8774   35.6604   98.9809 C   0  0  0  0  0  0  0  0  0  0  0  0
   27.7345   34.2301  103.4938 C   0  0  0  0  0  0  0  0  0  0  0  0
   23.2789   34.7423  106.2002 C   0  0  0  0  0  0  0  0  0  0  0  0
   24.4160   33.2741  103.4857 O   0  0  0  0  0  0  0  0  0  0  0  0
   31.3467   33.3053  103.1646 C   0  0  0  0  0  0  0  0  0  0  0  0
   32.0967   33.6999  102.0716 O   0  0  0  0  0  0  0  0  0  0  0  0
   22.2033   34.9001  107.0424 C   0  0  0  0  0  0  0  0  0  0  0  0
   26.2659   35.2890   99.2299 C   0  0  0  0  0  0  0  0  0  0  0  0
   26.9460   35.3369  103.4813 C   0  0  0  0  0  0  0  0  0  0  0  0
   28.6149   36.2379   97.2575 O   0  0  0  0  0  0  0  0  0  0  0  0
  1 13  2  0
  1 17  1  0
  2  3  2  0
  2 19  1  0
  2 35  1  0
  4  7  1  0
  4  8  1  0
  4  9  1  0
  5 23  2  0
  6 10  1  0
  6 17  2  0
  6 28  1  0
  7 33  2  0
  8 16  1  0
  8 34  1  0
  9 18  1  0
 10 16  1  0
 11 22  1  0
 11 34  1  0
 12 15  1  0
 13 32  1  0
 14 16  1  0
 14 28  1  0
 15 25  1  0
 15 30  1  0
 16 29  1  0
 18 24  1  0
 18 26  1  0
 19 33  1  0
 20 21  1  0
 20 23  1  0
 20 27  1  0
 21 30  1  0
 22 23  1  0
 26 33  1  0
 27 34  2  0
 28 32  2  0
 30 31  1  0
M  END
>  <ID>  (1) 
conformer_0

$$$$
