
     RDKit          3D

 34 37  0  0  0  0  0  0  0  0999 V2000
   29.7841   35.7895  102.6420 C   0  0  0  0  0  0  0  0  0  0  0  0
   31.8326   34.3625  104.9174 C   0  0  0  0  0  0  0  0  0  0  0  0
   33.0765   33.9483  104.7879 N   0  0  0  0  0  0  0  0  0  0  0  0
   31.2656   34.5565  106.1508 C   0  0  0  0  0  0  0  0  0  0  0  0
   22.7234   34.4929  106.2768 O   0  0  0  0  0  0  0  0  0  0  0  0
   24.2638   35.9964   99.6752 C   0  0  0  0  0  0  0  0  0  0  0  0
   31.3159   33.7459  102.6753 C   0  0  0  0  0  0  0  0  0  0  0  0
   24.9283   35.2772   98.8247 F   0  0  0  0  0  0  0  0  0  0  0  0
   30.2269   32.7937  102.7368 C   0  0  0  0  0  0  0  0  0  0  0  0
   24.1544   34.5010  106.4087 C   0  0  0  0  0  0  0  0  0  0  0  0
   27.8155   34.5913  105.7621 C   0  0  0  0  0  0  0  0  0  0  0  0
   23.1283   36.6093   99.4047 F   0  0  0  0  0  0  0  0  0  0  0  0
   26.3089   34.8697  103.9194 C   0  0  0  0  0  0  0  0  0  0  0  0
   25.7328   33.5677  107.9712 O   0  0  0  0  0  0  0  0  0  0  0  0
   27.1157   36.1618  102.2016 O   0  0  0  0  0  0  0  0  0  0  0  0
   25.1597   35.0146  102.9751 C   0  0  0  0  0  0  0  0  0  0  0  0
   29.1061   33.4064  103.5091 C   0  0  0  0  0  0  0  0  0  0  0  0
   29.5989   34.8087  103.8332 C   0  0  0  0  0  0  0  0  0  0  0  0
   21.3382   35.4809  107.9092 O   0  0  0  0  0  0  0  0  0  0  0  0
   24.9294   37.6122  101.2255 O   0  0  0  0  0  0  0  0  0  0  0  0
   27.4420   35.7292  103.5827 C   0  0  0  0  0  0  0  0  0  0  0  0
   24.9016   36.3537  100.9030 C   0  0  0  0  0  0  0  0  0  0  0  0
   29.8529   31.9585  101.6116 C   0  0  0  0  0  0  0  0  0  0  0  0
   31.0708   34.7354  103.6962 C   0  0  0  0  0  0  0  0  0  0  0  0
   25.8304   35.4849  101.6811 C   0  0  0  0  0  0  0  0  0  0  0  0
   28.5157   35.5165  104.7258 C   0  0  0  0  0  0  0  0  0  0  0  0
   24.4012   33.7113  107.7216 C   0  0  0  0  0  0  0  0  0  0  0  0
   26.3799   34.2847  105.1938 N   0  0  0  0  0  0  0  0  0  0  0  0
   30.0160   37.0549  103.3459 O   0  0  0  0  0  0  0  0  0  0  0  0
   24.9262   33.6699  105.3571 C   0  0  0  0  0  0  0  0  0  0  0  0
   23.2725   34.0965  108.5833 C   0  0  0  0  0  0  0  0  0  0  0  0
   22.1693   34.4604  107.6327 C   0  0  0  0  0  0  0  0  0  0  0  0
   32.3450   33.7423  101.9145 O   0  0  0  0  0  0  0  0  0  0  0  0
   23.6266   34.9555  109.6222 O   0  0  0  0  0  0  0  0  0  0  0  0
  1 18  1  0
  1 29  1  0
  2  3  2  0
  2  4  1  0
  2 24  1  0
  5 10  1  0
  5 32  1  0
  6  8  1  0
  6 12  1  0
  6 22  1  0
  7  9  1  0
  7 24  1  0
  7 33  2  0
  9 17  1  0
  9 23  1  0
 10 27  1  0
 10 30  1  0
 11 26  1  0
 11 28  1  0
 13 16  1  0
 13 21  2  0
 13 28  1  0
 14 27  1  0
 15 21  1  0
 15 25  1  0
 16 25  1  0
 17 18  1  0
 18 24  1  0
 18 26  1  0
 19 32  1  0
 20 22  1  0
 21 26  1  0
 22 25  1  0
 27 31  1  0
 28 30  1  0
 31 32  1  0
 31 34  1  0
M  END
>  <ID>  (1) 
conformer_0

$$$$
