
     RDKit          3D

 23 23  0  0  0  0  0  0  0  0999 V2000
   24.7194   36.9067  100.8498 O   0  0  0  0  0  0  0  0  0  0  0  0
   25.5738   33.8044  107.5876 C   0  0  0  0  0  0  0  0  0  0  0  0
   27.9939   34.9531  103.7322 C   0  0  0  0  0  0  0  0  0  0  0  0
   31.5782   33.5490  103.2532 P   0  0  0  0  0  4  0  0  0  0  0  0
   32.3399   33.9645  102.0456 O   0  0  0  0  0  1  0  0  0  0  0  0
   29.0680   34.1180  103.7445 C   0  0  0  0  0  0  0  0  0  0  0  0
   23.3273   34.0139  105.3775 C   0  0  0  0  0  0  0  0  0  0  0  0
   24.7188   34.4810  105.4970 C   0  0  0  0  0  0  0  0  0  0  0  0
   23.8549   36.1298   99.8789 C   0  0  0  0  0  0  0  0  0  0  0  0
   25.1059   34.8512  106.8451 O   0  0  0  0  0  0  0  0  0  0  0  0
   26.0158   35.3481  102.2416 C   0  0  0  0  0  0  0  0  0  0  0  0
   25.9817   36.0814  100.9241 C   0  0  0  0  0  0  0  0  0  0  0  0
   22.3638   34.7762  105.8766 O   0  0  0  0  0  0  0  0  0  0  0  0
   30.5636   35.9667  103.5888 C   0  0  0  0  0  0  0  0  0  0  0  0
   25.6633   34.9314  104.6207 O   0  0  0  0  0  0  0  0  0  0  0  0
   26.5594   34.4810  103.5315 C   0  0  0  0  0  0  0  0  0  0  0  0
   30.3447   34.5945  103.5667 C   0  0  0  0  0  0  0  0  0  0  0  0
   23.1270   32.7427  105.0607 O   0  0  0  0  0  0  0  0  0  0  0  0
   28.2753   36.3387  103.7399 C   0  0  0  0  0  0  0  0  0  0  0  0
   29.5199   36.8356  103.6515 N   0  0  0  0  0  0  0  0  0  0  0  0
   31.0618   32.2469  103.0795 O   0  0  0  0  0  0  0  0  0  0  0  0
   32.5647   33.7184  104.6192 N   0  0  0  0  0  0  0  0  0  0  0  0
   26.9527   33.7016  107.6417 O   0  0  0  0  0  0  0  0  0  0  0  0
  1  9  1  0
  1 12  1  0
  2 10  1  0
  2 23  1  0
  3  6  2  0
  3 16  1  0
  3 19  1  0
  4  5  2  0
  4 17  1  0
  4 21  1  0
  4 22  1  0
  6 17  1  0
  7  8  1  0
  7 13  2  0
  7 18  1  0
  8 10  1  0
  8 15  1  0
 11 12  1  0
 11 16  1  0
 14 17  2  0
 14 20  1  0
 15 16  1  0
 19 20  2  0
M  END
>  <ID>  (1) 
conformer_0

$$$$
