
     RDKit          3D

 26 27  0  0  0  0  0  0  0  0999 V2000
   29.0946   34.3811  104.9193 C   0  0  0  0  0  0  0  0  0  0  0  0
   32.4430   33.9750  101.9438 N   0  0  0  0  0  0  0  0  0  0  0  0
   31.8809   34.4186  105.0708 C   0  0  0  0  0  0  0  0  0  0  0  0
   26.2814   33.8539  107.5911 O   0  0  0  0  0  0  0  0  0  0  0  0
   26.9273   36.2268  102.0093 N   0  0  0  0  0  0  0  0  0  0  0  0
   23.9359   36.2319   99.1766 C   0  0  0  0  0  0  0  0  0  0  0  0
   24.5223   35.6354  101.2187 C   0  0  0  0  0  0  0  0  0  0  0  0
   25.7307   34.7899  103.3210 C   0  0  0  0  0  0  0  0  0  0  0  0
   27.7153   34.3178  104.8591 C   0  0  0  0  0  0  0  0  0  0  0  0
   22.7165   35.8987   99.4929 O   0  0  0  0  0  0  0  0  0  0  0  0
   27.0450   34.8861  103.8289 N   0  0  0  0  0  0  0  0  0  0  0  0
   24.8995   34.0154  108.0850 C   0  0  0  0  0  0  0  0  0  0  0  0
   23.4358   33.6418  106.0912 C   0  0  0  0  0  0  0  0  0  0  0  0
   27.7744   35.6803  102.9477 C   0  0  0  0  0  0  0  0  0  0  0  0
   31.5335   33.7917  102.8315 C   0  0  0  0  0  0  0  0  0  0  0  0
   29.7970   35.0019  103.9068 C   0  0  0  0  0  0  0  0  0  0  0  0
   29.1219   35.7506  103.0046 N   0  0  0  0  0  0  0  0  0  0  0  0
   24.2494   35.8324  105.3935 O   0  0  0  0  0  0  0  0  0  0  0  0
   24.8099   33.8657  104.1446 C   0  0  0  0  0  0  0  0  0  0  0  0
   31.2088   34.7528  103.8231 N   0  0  0  0  0  0  0  0  0  0  0  0
   24.8002   36.7278  100.2542 N   0  0  0  0  0  0  0  0  0  0  0  0
   23.5627   33.5814  107.5930 C   0  0  0  0  0  0  0  0  0  0  0  0
   33.1139   33.8709  104.8618 N   0  0  0  0  0  0  0  0  0  0  0  0
   23.1080   32.4657  105.4247 O   0  0  0  0  0  0  0  0  0  0  0  0
   25.6350   35.5819  102.1490 C   0  0  0  0  0  0  0  0  0  0  0  0
   24.6169   34.4267  105.5510 C   0  0  0  0  0  0  0  0  0  0  0  0
  1  9  1  0
  1 16  2  0
  2 15  2  0
  3 20  1  0
  3 23  1  0
  4 12  1  0
  5 14  1  0
  5 25  1  0
  6 10  1  0
  6 21  1  0
  7 21  1  0
  7 25  1  0
  8 11  1  0
  8 19  1  0
  8 25  2  0
  9 11  1  0
 11 14  1  0
 12 22  1  0
 13 22  1  0
 13 24  1  0
 13 26  1  0
 14 17  2  0
 15 20  1  0
 16 17  1  0
 16 20  1  0
 18 26  1  0
 19 26  1  0
M  END
>  <ID>  (1) 
conformer_0

$$$$
