
     RDKit          3D

 33 36  0  0  0  0  0  0  0  0999 V2000
   24.6581   33.9900  106.7627 C   0  0  0  0  0  0  0  0  0  0  0  0
   25.1759   37.5669  101.1448 C   0  0  0  0  0  0  0  0  0  0  0  0
   30.5782   34.0955  105.5311 C   0  0  0  0  0  0  0  0  0  0  0  0
   23.2490   35.6528  105.6022 C   0  0  0  0  0  0  0  0  0  0  0  0
   29.8076   32.6850  102.5028 C   0  0  0  0  0  0  0  0  0  0  0  0
   30.6132   36.2257  104.3208 C   0  0  0  0  0  0  0  0  0  0  0  0
   22.4075   34.0782  108.2660 C   0  0  0  0  0  0  0  0  0  0  0  0
   24.7325   34.6336  104.0613 C   0  0  0  0  0  0  0  0  0  0  0  0
   24.4172   35.3538  101.9039 C   0  0  0  0  0  0  0  0  0  0  0  0
   32.8921   32.8163  103.6579 O   0  0  0  0  0  0  0  0  0  0  0  0
   32.7935   33.8317  101.5568 O   0  0  0  0  0  0  0  0  0  0  0  0
   24.5497   34.8558  105.5500 C   0  0  0  0  0  0  0  0  0  0  0  0
   22.0048   34.8727  105.9357 C   0  0  0  0  0  0  0  0  0  0  0  0
   29.6186   33.5567  103.5129 C   0  0  0  0  0  0  0  0  0  0  0  0
   28.8327   34.5883  103.9185 C   0  0  0  0  0  0  0  0  0  0  0  0
   31.3624   34.8870  104.3830 C   0  0  0  0  0  0  0  0  0  0  0  0
   21.4279   34.7749  107.3288 C   0  0  0  0  0  0  0  0  0  0  0  0
   26.2287   35.5843  100.2173 C   0  0  0  0  0  0  0  0  0  0  0  0
   23.8365   34.3004  107.9468 C   0  0  0  0  0  0  0  0  0  0  0  0
   27.3751   34.6220  103.8767 C   0  0  0  0  0  0  0  0  0  0  0  0
   28.4261   37.1560  103.5201 C   0  0  0  0  0  0  0  0  0  0  0  0
   29.2639   35.9998  103.7948 C   0  0  0  0  0  0  0  0  0  0  0  0
   26.6992   35.6648  103.0163 C   0  0  0  0  0  0  0  0  0  0  0  0
   24.9825   36.2008  100.7634 C   0  0  0  0  0  0  0  0  0  0  0  0
   25.3000   35.5169  103.0667 N   0  0  0  0  0  0  0  0  0  0  0  0
   24.4928   34.1709  109.1416 O   0  0  0  0  0  0  0  0  0  0  0  0
   26.9332   33.5717  104.5411 O   0  0  0  0  0  0  0  0  0  0  0  0
   23.7967   36.1000   99.8732 C   0  0  0  0  0  0  0  0  0  0  0  0
   29.4183   33.3103  104.8719 C   0  0  0  0  0  0  0  0  0  0  0  0
   27.1440   36.9883  102.9218 C   0  0  0  0  0  0  0  0  0  0  0  0
   32.3054   33.4679  102.7221 C   0  0  0  0  0  0  0  0  0  0  0  0
   30.9497   34.1430  103.0842 C   0  0  0  0  0  0  0  0  0  0  0  0
   26.1152   33.7873  107.2111 C   0  0  0  0  0  0  0  0  0  0  0  0
  1 12  1  0
  1 19  1  0
  1 33  1  0
  2 24  1  0
  3 16  1  0
  3 29  1  0
  4 12  1  0
  4 13  1  0
  5 14  1  0
  6 16  1  0
  6 22  1  0
  7 17  1  0
  7 19  1  0
  8 12  1  0
  8 25  1  0
  9 24  1  0
  9 25  1  0
 10 31  2  0
 11 31  1  0
 13 17  1  0
 14 15  1  0
 14 29  1  0
 14 32  1  0
 15 20  1  0
 15 22  1  0
 16 32  1  0
 18 24  1  0
 19 26  1  0
 20 23  1  0
 20 27  1  0
 21 22  1  0
 21 30  1  0
 23 25  1  0
 23 30  1  0
 24 28  1  0
 31 32  1  0
M  END
>  <ID>  (1) 
conformer_0

$$$$
