
     RDKit          3D

 28 28  0  0  0  0  0  0  0  0999 V2000
   23.5795   33.5692  104.9226 C   0  0  0  0  0  0  0  0  0  0  0  0
   28.5830   35.3936  104.0750 C   0  0  0  0  0  0  0  0  0  0  0  0
   30.4599   32.8012  102.5900 C   0  0  0  0  0  0  0  0  0  0  0  0
   30.5103   34.5982  105.5022 C   0  0  0  0  0  0  0  0  0  0  0  0
   25.6595   34.8680  105.7338 S   0  0  0  0  0  4  0  0  0  0  0  0
   30.7256   35.1168  103.2101 N   0  0  0  0  0  0  0  0  0  0  0  0
   23.9691   34.7020  105.8752 C   0  0  0  0  0  0  0  0  0  0  0  0
   31.8813   34.2190  105.3789 C   0  0  0  0  0  0  0  0  0  0  0  0
   25.7833   36.2391  101.0350 C   0  0  0  0  0  0  0  0  0  0  0  0
   23.4401   36.8496   99.5468 O   0  0  0  0  0  0  0  0  0  0  0  0
   26.1488   35.2751   98.8348 O   0  0  0  0  0  0  0  0  0  0  0  0
   24.1792   32.7061  103.8331 C   0  0  0  0  0  0  0  0  0  0  0  0
   28.3402   36.4915  103.5354 O   0  0  0  0  0  0  0  0  0  0  0  0
   26.0755   34.2123  104.3077 C   0  0  0  0  0  0  0  0  0  0  0  0
   25.2949   37.3132  101.3823 O   0  0  0  0  0  0  0  0  0  0  0  0
   24.5838   32.4301  105.1469 O   0  0  0  0  0  0  0  0  0  0  0  0
   31.5036   33.9024  102.9708 C   0  0  0  0  0  0  0  0  0  0  0  0
   25.3695   34.8839  103.1188 C   0  0  0  0  0  0  0  0  0  0  0  0
   29.9876   35.0636  104.3338 C   0  0  0  0  0  0  0  0  0  0  0  0
   32.3287   33.9156  101.8333 O   0  0  0  0  0  0  0  0  0  0  0  0
   26.3145   35.3556  102.0427 N   0  0  0  0  0  0  0  0  0  0  0  0
   25.2839   35.4075   99.8938 C   0  0  0  0  0  0  0  0  0  0  0  0
   23.2944   35.9494  105.6512 O   0  0  0  0  0  0  0  0  0  0  0  0
   25.9455   36.3001  105.7057 O   0  0  0  0  0  1  0  0  0  0  0  0
   32.2437   33.6647  104.1886 N   0  0  0  0  0  0  0  0  0  0  0  0
   27.5797   34.2864  104.1444 C   0  0  0  0  0  0  0  0  0  0  0  0
   26.2612   34.1684  106.8330 O   0  0  0  0  0  1  0  0  0  0  0  0
   23.8255   35.5453   99.5430 C   0  0  0  0  0  0  0  0  0  0  0  0
  1  7  1  0
  1 12  1  0
  2 13  2  0
  2 19  1  0
  2 26  1  0
  3 17  1  0
  4  8  1  0
  4 19  1  0
  5  7  1  0
  5 14  1  0
  5 24  1  0
  5 27  1  0
  6 17  1  0
  6 19  1  0
  7 23  1  0
  8 25  1  0
  9 15  2  0
  9 21  1  0
  9 22  1  0
 10 28  1  0
 11 22  1  0
 12 16  1  0
 14 18  1  0
 14 26  1  0
 17 20  1  0
 17 25  1  0
 18 21  1  0
 22 28  1  0
M  END
>  <ID>  (1) 
conformer_0

$$$$
