
     RDKit          3D

 24 25  0  0  0  0  0  0  0  0999 V2000
   29.3734   35.7166  103.7170 C   0  0  0  0  0  0  0  0  0  0  0  0
   26.9913   33.5720  107.1984 C   0  0  0  0  0  0  0  0  0  0  0  0
   23.2170   36.6333   99.6130 N   0  0  0  0  0  0  0  0  0  0  0  0
   27.0154   35.6524  103.0961 C   0  0  0  0  0  0  0  0  0  0  0  0
   25.1983   35.9104  100.7815 C   0  0  0  0  0  0  0  0  0  0  0  0
   31.6814   33.8440  102.5119 O   0  0  0  0  0  0  0  0  0  0  0  0
   25.5254   33.8276  107.3908 C   0  0  0  0  0  0  0  0  0  0  0  0
   30.2033   34.6840  104.2561 N   0  0  0  0  0  0  0  0  0  0  0  0
   29.8251   36.7603  103.3010 O   0  0  0  0  0  0  0  0  0  0  0  0
   24.8277   33.6609  106.2997 O   0  0  0  0  0  0  0  0  0  0  0  0
   25.7326   35.0671  103.0317 C   0  0  0  0  0  0  0  0  0  0  0  0
   28.2397   34.7769  105.3212 C   0  0  0  0  0  0  0  0  0  0  0  0
   25.0805   34.3913  108.4015 O   0  0  0  0  0  0  0  0  0  0  0  0
   27.2967   36.4405  101.9496 C   0  0  0  0  0  0  0  0  0  0  0  0
   26.4668   36.5358  100.8488 C   0  0  0  0  0  0  0  0  0  0  0  0
   24.3485   35.9800   99.5972 C   0  0  0  0  0  0  0  0  0  0  0  0
   31.4354   34.1288  103.7958 C   0  0  0  0  0  0  0  0  0  0  0  0
   24.8601   35.4360   98.5134 O   0  0  0  0  0  0  0  0  0  0  0  0
   26.5427   35.9676  106.4046 O   0  0  0  0  0  0  0  0  0  0  0  0
   27.5086   34.9336  106.6002 C   0  0  0  0  0  0  0  0  0  0  0  0
   28.0398   35.4275  104.0599 N   0  0  0  0  0  0  0  0  0  0  0  0
   32.4398   33.8053  104.6797 N   0  0  0  0  0  0  0  0  0  0  0  0
   24.8576   35.1933  101.9012 C   0  0  0  0  0  0  0  0  0  0  0  0
   29.4296   34.1298  105.3923 C   0  0  0  0  0  0  0  0  0  0  0  0
  1  8  1  0
  1  9  2  0
  1 21  1  0
  2  7  1  0
  2 20  1  0
  3 16  1  0
  4 11  1  0
  4 14  2  0
  4 21  1  0
  5 15  2  0
  5 16  1  0
  5 23  1  0
  6 17  2  0
  7 10  2  0
  7 13  1  0
  8 17  1  0
  8 24  1  0
 11 23  2  0
 12 20  1  0
 12 21  1  0
 12 24  1  0
 14 15  1  0
 16 18  2  0
 17 22  1  0
 19 20  1  0
M  END
>  <ID>  (1) 
conformer_0

$$$$
