
     RDKit          3D

 36 36  0  0  0  0  0  0  0  0999 V2000
   26.4110   35.4777  102.9442 C   0  0  0  0  0  0  0  0  0  0  0  0
   21.9603   33.9737  107.5310 N   0  0  0  0  0  0  0  0  0  0  0  0
   28.4403   33.9287  106.0092 S   0  0  0  0  0  0  0  0  0  0  0  0
   25.9750   34.9112  105.2178 C   0  0  0  0  0  0  0  0  0  0  0  0
   23.4695   36.1131   99.5514 C   0  0  0  0  0  0  0  0  0  0  0  0
   31.4399   31.6812  103.0930 F   0  0  0  0  0  0  0  0  0  0  0  0
   32.7714   33.5656  103.7910 C   0  0  0  0  0  0  0  0  0  0  0  0
   23.7497   33.9623  104.8072 O   0  0  0  0  0  0  0  0  0  0  0  0
   33.5706   33.3060  102.7842 F   0  0  0  0  0  0  0  0  0  0  0  0
   30.8948   35.1323  105.6739 F   0  0  0  0  0  0  0  0  0  0  0  0
   20.2832   32.6764  108.6564 C   0  0  0  0  0  0  0  0  0  0  0  0
   23.1836   37.2677   99.0101 F   0  0  0  0  0  0  0  0  0  0  0  0
   23.3334   34.0889  107.8470 C   0  0  0  0  0  0  0  0  0  0  0  0
   24.1692   34.9334  101.5718 C   0  0  0  0  0  0  0  0  0  0  0  0
   24.9704   35.1736  102.7602 C   0  0  0  0  0  0  0  0  0  0  0  0
   26.8738   34.5900  104.0999 C   0  0  0  0  0  0  0  0  0  0  0  0
   21.9625   34.0642  109.8646 C   0  0  0  0  0  0  0  0  0  0  0  0
   24.7419   34.3590  105.6406 C   0  0  0  0  0  0  0  0  0  0  0  0
   22.5810   35.1398   99.5344 F   0  0  0  0  0  0  0  0  0  0  0  0
   28.2312   34.7736  104.7023 C   0  0  0  0  0  0  0  0  0  0  0  0
   29.5669   32.6516  102.7190 F   0  0  0  0  0  0  0  0  0  0  0  0
   29.3182   35.1570  103.9758 C   0  0  0  0  0  0  0  0  0  0  0  0
   25.2441   37.1790  100.7363 F   0  0  0  0  0  0  0  0  0  0  0  0
   31.3149   33.1412  101.4678 F   0  0  0  0  0  0  0  0  0  0  0  0
   30.6346   34.6521  104.3956 C   0  0  0  0  0  0  0  0  0  0  0  0
   21.2210   34.6652  106.3719 C   0  0  0  0  0  0  0  0  0  0  0  0
   26.8570   33.2014  103.5448 F   0  0  0  0  0  0  0  0  0  0  0  0
   33.3242   33.6546  104.9598 F   0  0  0  0  0  0  0  0  0  0  0  0
   30.9330   32.8523  102.7263 C   0  0  0  0  0  0  0  0  0  0  0  0
   29.3726   36.4050  103.4275 F   0  0  0  0  0  0  0  0  0  0  0  0
   31.3969   33.9271  103.5869 C   0  0  0  0  0  0  0  0  0  0  0  0
   21.1548   33.9395  108.6600 N   0  0  0  0  0  0  0  0  0  0  0  0
   24.4861   36.0082  100.5649 C   0  0  0  0  0  0  0  0  0  0  0  0
   24.5498   34.2070  107.0672 C   0  0  0  0  0  0  0  0  0  0  0  0
   23.3752   34.2994  109.3533 C   0  0  0  0  0  0  0  0  0  0  0  0
   25.6670   34.2463  107.8297 O   0  0  0  0  0  0  0  0  0  0  0  0
  1 15  1  0
  1 16  1  0
  2 13  1  0
  2 26  1  0
  2 32  1  0
  3 20  2  0
  4 16  1  0
  4 18  1  0
  5 12  1  0
  5 19  1  0
  5 33  1  0
  6 29  1  0
  7  9  1  0
  7 28  1  0
  7 31  1  0
  8 18  1  0
 10 25  1  0
 11 32  1  0
 13 34  2  3
 13 35  1  0
 14 15  1  0
 14 33  1  0
 16 20  1  0
 16 27  1  0
 17 32  1  0
 17 35  1  0
 18 34  1  0
 20 22  1  0
 21 29  1  0
 22 25  1  0
 22 30  1  0
 23 33  1  0
 24 29  1  0
 25 31  1  0
 29 31  1  0
 34 36  1  0
M  END
>  <ID>  (1) 
conformer_0

$$$$
