
     RDKit          3D

 24 25  0  0  0  0  0  0  0  0999 V2000
   32.3346   33.9952  101.8830 N   0  0  0  0  0  0  0  0  0  0  0  0
   31.5764   34.5520  104.0760 C   0  0  0  0  0  0  0  0  0  0  0  0
   25.7204   34.1297  107.6376 N   0  0  0  0  0  0  0  0  0  0  0  0
   30.1612   34.8011  104.4051 C   0  0  0  0  0  0  0  0  0  0  0  0
   23.6553   33.2267  105.7605 C   0  0  0  0  0  0  0  0  0  0  0  0
   29.4640   33.9180  105.1813 C   0  0  0  0  0  0  0  0  0  0  0  0
   24.6933   36.3097  100.7694 C   0  0  0  0  0  0  0  0  0  0  0  0
   26.9940   33.4627  107.8335 O   0  0  0  0  0  0  0  0  0  0  0  0
   25.3141   34.7347  106.4549 C   0  0  0  0  0  0  0  0  0  0  0  0
   24.1561   33.3971  104.2551 C   0  0  0  0  0  0  0  0  0  0  0  0
   27.4209   34.9941  104.9242 C   0  0  0  0  0  0  0  0  0  0  0  0
   25.3402   37.3170  101.0322 O   0  0  0  0  0  0  0  0  0  0  0  0
   24.5333   35.1743  101.7450 C   0  0  0  0  0  0  0  0  0  0  0  0
   25.3561   35.1745  102.8434 N   0  0  0  0  0  0  0  0  0  0  0  0
   29.9903   36.9360  103.4704 O   0  0  0  0  0  0  0  0  0  0  0  0
   25.9633   34.9212  105.1787 C   0  0  0  0  0  0  0  0  0  0  0  0
   29.3953   35.9423  103.9702 C   0  0  0  0  0  0  0  0  0  0  0  0
   23.9246   34.6037  106.3927 N   0  0  0  0  0  0  0  0  0  0  0  0
   28.0585   35.9741  104.1637 N   0  0  0  0  0  0  0  0  0  0  0  0
   31.7250   33.4931  103.0491 C   0  0  0  0  0  0  0  0  0  0  0  0
   23.8121   36.2290   99.6926 N   0  0  0  0  0  0  0  0  0  0  0  0
   25.0854   34.6004  104.0605 C   0  0  0  0  0  0  0  0  0  0  0  0
   30.4557   32.7301  102.7038 C   0  0  0  0  0  0  0  0  0  0  0  0
   28.2153   33.9601  105.4415 N   0  0  0  0  0  0  0  0  0  0  0  0
  1 20  1  0
  2  4  1  0
  2 20  1  0
  3  8  1  0
  3  9  2  3
  4  6  1  0
  4 17  1  0
  5 10  1  0
  5 18  1  0
  6 24  2  0
  7 12  2  0
  7 13  1  0
  7 21  1  0
  9 16  1  0
  9 18  1  0
 10 22  1  0
 11 16  1  0
 11 19  2  0
 11 24  1  0
 13 14  1  0
 14 22  1  0
 15 17  2  0
 16 22  1  0
 17 19  1  0
 20 23  1  0
M  END
>  <ID>  (1) 
conformer_0

$$$$
