
     RDKit          3D

 33 33  0  0  0  0  0  0  0  0999 V2000
   23.5981   34.1150  108.1876 C   0  0  0  0  0  0  0  0  0  0  0  0
   29.1766   33.5322  103.3660 N   0  0  0  0  0  0  0  0  0  0  0  0
   31.3649   35.0977  103.2705 N   0  0  0  0  0  0  0  0  0  0  0  0
   24.6436   34.5501  108.8173 O   0  0  0  0  0  0  0  0  0  0  0  0
   27.2209   34.5982  105.1240 C   0  0  0  0  0  0  0  0  0  0  0  0
   23.6106   34.2082  106.7482 C   0  0  0  0  0  0  0  0  0  0  0  0
   21.1451   34.1884  107.7121 C   0  0  0  0  0  0  0  0  0  0  0  0
   22.2282   34.0571  108.8339 C   0  0  0  0  0  0  0  0  0  0  0  0
   25.2562   35.1070  103.8330 C   0  0  0  0  0  0  0  0  0  0  0  0
   26.1864   34.9498   96.7234 N   0  0  0  0  0  0  0  0  0  0  0  0
   20.8877   32.8042  107.3886 N   0  0  0  0  0  0  0  0  0  0  0  0
   31.4896   33.8102  102.8620 C   0  0  0  0  0  0  0  0  0  0  0  0
   26.5925   35.3892  104.2377 C   0  0  0  0  0  0  0  0  0  0  0  0
   25.3375   35.7734   99.0246 C   0  0  0  0  0  0  0  0  0  0  0  0
   29.0536   34.8200  103.7090 C   0  0  0  0  0  0  0  0  0  0  0  0
   30.2377   35.6818  103.6289 C   0  0  0  0  0  0  0  0  0  0  0  0
   28.1742   34.4997   97.5839 O   0  0  0  0  0  0  0  0  0  0  0  0
   23.1846   36.0016   99.8598 O   0  0  0  0  0  0  0  0  0  0  0  0
   22.6314   33.4575  105.9208 C   0  0  0  0  0  0  0  0  0  0  0  0
   32.5798   33.4200  102.3185 O   0  0  0  0  0  0  0  0  0  0  0  0
   24.4508   36.1360  100.0483 C   0  0  0  0  0  0  0  0  0  0  0  0
   24.9571   36.8605  101.2135 C   0  0  0  0  0  0  0  0  0  0  0  0
   24.7066   33.9758  104.6473 C   0  0  0  0  0  0  0  0  0  0  0  0
   21.1937   33.6957  106.3150 C   0  0  0  0  0  0  0  0  0  0  0  0
   24.9557   34.9425  102.3572 C   0  0  0  0  0  0  0  0  0  0  0  0
   30.3506   33.0007  102.9694 N   0  0  0  0  0  0  0  0  0  0  0  0
   27.8641   35.4372  104.1645 C   0  0  0  0  0  0  0  0  0  0  0  0
   27.0290   34.9853   97.6716 C   0  0  0  0  0  0  0  0  0  0  0  0
   24.8042   34.3914  106.0670 N   0  0  0  0  0  0  0  0  0  0  0  0
   26.6020   35.5525   98.8974 N   0  0  0  0  0  0  0  0  0  0  0  0
   19.9607   31.8130  106.8542 C   0  0  0  0  0  0  0  0  0  0  0  0
   26.0077   35.9137  101.7510 C   0  0  0  0  0  0  0  0  0  0  0  0
   30.1516   36.9179  103.8515 O   0  0  0  0  0  0  0  0  0  0  0  0
  1  4  1  0
  1  6  1  0
  1  8  1  0
  2 15  2  0
  2 26  1  0
  3 12  1  0
  3 16  1  0
  5 13  1  0
  6 19  1  0
  6 29  1  0
  7  8  1  0
  9 13  1  0
  9 23  1  0
  9 25  1  0
 10 28  1  0
 11 24  1  0
 11 31  1  0
 12 20  2  0
 12 26  1  0
 13 27  1  0
 14 21  1  0
 14 30  2  3
 15 16  1  0
 15 27  1  0
 16 33  2  0
 17 28  2  0
 18 21  1  0
 19 24  1  0
 21 22  1  0
 22 32  1  0
 23 29  1  0
 25 32  1  0
 28 30  1  0
M  END
>  <ID>  (1) 
conformer_0

$$$$
