
     RDKit          3D

 24 26  0  0  0  0  0  0  0  0999 V2000
   24.2663   34.4335  105.5920 C   0  0  0  0  0  0  0  0  0  0  0  0
   26.5879   34.7382  104.8262 C   0  0  0  0  0  0  0  0  0  0  0  0
   27.9800   35.1288  104.3832 C   0  0  0  0  0  0  0  0  0  0  0  0
   25.1683   34.3432  104.2956 C   0  0  0  0  0  0  0  0  0  0  0  0
   30.3052   36.0746  103.3917 N   0  0  0  0  0  0  0  0  0  0  0  0
   25.6822   35.8195  100.0101 C   0  0  0  0  0  0  0  0  0  0  0  0
   31.9543   33.6271  102.4771 O   0  0  0  0  0  0  0  0  0  0  0  0
   25.6635   35.6242  103.7108 C   0  0  0  0  0  0  0  0  0  0  0  0
   26.6233   34.4790  106.3504 C   0  0  0  0  0  0  0  0  0  0  0  0
   27.5026   33.7948  107.1462 O   0  0  0  0  0  0  0  0  0  0  0  0
   25.4551   35.8731  102.2648 C   0  0  0  0  0  0  0  0  0  0  0  0
   24.4005   36.5750  101.7041 N   0  0  0  0  0  0  0  0  0  0  0  0
   26.2839   35.4742  101.1833 N   0  0  0  0  0  0  0  0  0  0  0  0
   31.5333   33.9661  103.6675 C   0  0  0  0  0  0  0  0  0  0  0  0
   28.0947   36.4554  103.9919 C   0  0  0  0  0  0  0  0  0  0  0  0
   25.1726   34.4741  108.1941 O   0  0  0  0  0  0  0  0  0  0  0  0
   25.9856   35.4915   98.6290 C   0  0  0  0  0  0  0  0  0  0  0  0
   25.1570   34.3150  106.8063 C   0  0  0  0  0  0  0  0  0  0  0  0
   32.3997   33.7975  104.7100 N   0  0  0  0  0  0  0  0  0  0  0  0
   24.4774   36.5450  100.3266 C   0  0  0  0  0  0  0  0  0  0  0  0
   23.1530   33.3752  105.3670 C   0  0  0  0  0  0  0  0  0  0  0  0
   30.2712   34.7418  103.8145 C   0  0  0  0  0  0  0  0  0  0  0  0
   29.0563   34.2861  104.3176 C   0  0  0  0  0  0  0  0  0  0  0  0
   29.2441   36.9188  103.5071 C   0  0  0  0  0  0  0  0  0  0  0  0
  1  4  1  0
  1 18  1  0
  1 21  1  0
  2  3  1  0
  2  4  1  0
  2  9  1  0
  3 15  1  0
  3 23  2  0
  4  8  1  0
  5 22  2  0
  5 24  1  0
  6 13  1  0
  6 17  1  0
  6 20  1  0
  7 14  2  0
  8 11  1  0
  9 10  1  0
  9 18  1  0
 11 12  2  0
 11 13  1  0
 12 20  1  0
 14 19  1  0
 14 22  1  0
 15 24  2  0
 16 18  1  0
 22 23  1  0
M  END
>  <ID>  (1) 
conformer_0

$$$$
