
     RDKit          3D

 27 28  0  0  0  0  0  0  0  0999 V2000
   30.2814   35.0798  104.3408 N   0  0  0  0  0  0  0  0  0  0  0  0
   27.9532   35.2034  103.9147 C   0  0  0  0  0  0  0  0  0  0  0  0
   32.4575   33.8929  104.5100 C   0  0  0  0  0  0  0  0  0  0  0  0
   25.1563   34.1433  106.9762 C   0  0  0  0  0  0  0  0  0  0  0  0
   22.9559   35.0578   99.6329 O   0  0  0  0  0  0  0  0  0  0  0  0
   25.9329   36.8080  100.8549 C   0  0  0  0  0  0  0  0  0  0  0  0
   30.9010   35.2275  105.8185 C   0  0  0  0  0  0  0  0  0  0  0  0
   28.9976   34.5611  104.5680 C   0  0  0  0  0  0  0  0  0  0  0  0
   24.8307   34.2304  105.5651 C   0  0  0  0  0  0  0  0  0  0  0  0
   30.6194   32.5266  102.6263 O   0  0  0  0  0  0  0  0  0  0  0  0
   23.7013   36.0603   99.8419 C   0  0  0  0  0  0  0  0  0  0  0  0
   31.4513   34.5366  103.5628 C   0  0  0  0  0  0  0  0  0  0  0  0
   24.7794   35.9401  100.7973 C   0  0  0  0  0  0  0  0  0  0  0  0
   29.7167   36.4917  103.2748 N   0  0  0  0  0  0  0  0  0  0  0  0
   32.4508   33.8183  101.5852 O   0  0  0  0  0  0  0  0  0  0  0  0
   24.8716   35.1194  101.8921 N   0  0  0  0  0  0  0  0  0  0  0  0
   26.2866   33.7664  107.4858 O   0  0  0  0  0  0  0  0  0  0  0  0
   26.5506   34.8602  103.8498 C   0  0  0  0  0  0  0  0  0  0  0  0
   26.0083   35.4278  102.6359 C   0  0  0  0  0  0  0  0  0  0  0  0
   25.9579   33.8291  104.6552 C   0  0  0  0  0  0  0  0  0  0  0  0
   24.2780   34.4920  109.1490 O   0  0  0  0  0  0  0  0  0  0  0  0
   28.3980   36.2438  103.1571 C   0  0  0  0  0  0  0  0  0  0  0  0
   23.4823   37.2024   99.3748 O   0  0  0  0  0  0  0  0  0  0  0  0
   26.7875   36.4182  101.9925 N   0  0  0  0  0  0  0  0  0  0  0  0
   31.9121   34.0974  105.8904 C   0  0  0  0  0  0  0  0  0  0  0  0
   23.9195   34.0741  107.8916 C   0  0  0  0  0  0  0  0  0  0  0  0
   31.3769   33.5696  102.3521 C   0  0  0  0  0  0  0  0  0  0  0  0
  1  7  1  0
  1  8  1  0
  1 12  1  0
  2  8  2  3
  2 18  1  0
  2 22  1  0
  3 12  1  0
  3 25  1  0
  4  9  1  0
  4 17  1  0
  4 26  1  0
  5 11  2  0
  6 13  1  0
  6 24  1  0
  7 25  1  0
  9 20  1  0
 10 27  2  0
 11 13  1  0
 11 23  1  0
 12 27  1  0
 13 16  1  0
 14 22  1  0
 15 27  1  0
 16 19  2  0
 18 19  1  0
 18 20  1  0
 19 24  1  0
 21 26  1  0
M  END
>  <ID>  (1) 
conformer_0

$$$$
