
     RDKit          3D

 35 39  0  0  0  0  0  0  0  0999 V2000
   27.7585   34.4694  103.6281 C   0  0  0  0  0  0  0  0  0  0  0  0
   27.1608   35.8644  103.3266 C   0  0  0  0  0  0  0  0  0  0  0  0
   29.6274   32.3763  104.5943 C   0  0  0  0  0  0  0  0  0  0  0  0
   25.6978   36.7972  100.6868 C   0  0  0  0  0  0  0  0  0  0  0  0
   31.6668   35.6121  103.6584 C   0  0  0  0  0  0  0  0  0  0  0  0
   31.3807   33.3162  103.2273 C   0  0  0  0  0  0  0  0  0  0  0  0
   33.0732   33.4432  104.6551 C   0  0  0  0  0  0  0  0  0  0  0  0
   29.8135   35.2494  105.3684 O   0  0  0  0  0  0  0  0  0  0  0  0
   25.7451   35.6212  102.7438 C   0  0  0  0  0  0  0  0  0  0  0  0
   26.3901   33.7815  104.2074 C   0  0  0  0  0  0  0  0  0  0  0  0
   25.2766   34.2235  103.1746 C   0  0  0  0  0  0  0  0  0  0  0  0
   25.5816   33.9110  107.7277 C   0  0  0  0  0  0  0  0  0  0  0  0
   29.5830   36.8406  103.6136 O   0  0  0  0  0  0  0  0  0  0  0  0
   24.2714   36.7711  100.8168 N   0  0  0  0  0  0  0  0  0  0  0  0
   23.7379   32.8983  104.5049 C   0  0  0  0  0  0  0  0  0  0  0  0
   24.5186   31.8454  104.1137 O   0  0  0  0  0  0  0  0  0  0  0  0
   25.1046   33.5949  106.3901 C   0  0  0  0  0  0  0  0  0  0  0  0
   31.0138   34.2873  105.5252 C   0  0  0  0  0  0  0  0  0  0  0  0
   25.7545   35.8146  105.6487 O   0  0  0  0  0  0  0  0  0  0  0  0
   31.9150   34.3269  104.2612 C   0  0  0  0  0  0  0  0  0  0  0  0
   23.9610   34.1627  103.7744 O   0  0  0  0  0  0  0  0  0  0  0  0
   25.9151   34.4069  105.4938 C   0  0  0  0  0  0  0  0  0  0  0  0
   29.9135   33.1898  103.4000 C   0  0  0  0  0  0  0  0  0  0  0  0
   34.1410   34.2768  105.1188 O   0  0  0  0  0  0  0  0  0  0  0  0
   23.7752   35.7780   99.9542 C   0  0  0  0  0  0  0  0  0  0  0  0
   24.8907   34.6242  108.4757 O   0  0  0  0  0  0  0  0  0  0  0  0
   31.7461   33.7280  101.9279 O   0  0  0  0  0  0  0  0  0  0  0  0
   23.4257   36.2694   98.7524 N   0  0  0  0  0  0  0  0  0  0  0  0
   29.9771   35.6131  103.8402 C   0  0  0  0  0  0  0  0  0  0  0  0
   26.8118   33.4925  107.8175 O   0  0  0  0  0  0  0  0  0  0  0  0
   31.7881   35.2725  106.4178 C   0  0  0  0  0  0  0  0  0  0  0  0
   26.1758   35.5510  101.2741 C   0  0  0  0  0  0  0  0  0  0  0  0
   32.1310   32.1943  103.8693 C   0  0  0  0  0  0  0  0  0  0  0  0
   29.2823   34.5136  103.0202 C   0  0  0  0  0  0  0  0  0  0  0  0
   23.8092   33.1119  106.0193 C   0  0  0  0  0  0  0  0  0  0  0  0
  1  2  1  0
  1 10  1  0
  1 34  1  0
  2  9  1  0
  3 23  1  0
  4 14  1  0
  4 32  1  0
  5 20  1  0
  5 29  1  0
  6 20  1  0
  6 23  1  0
  6 27  1  0
  6 33  1  0
  7 20  1  0
  7 24  1  0
  7 33  1  0
  8 18  1  0
  8 29  1  0
  9 11  1  0
  9 32  1  0
 10 11  1  0
 10 22  1  0
 11 21  1  0
 12 17  1  0
 12 26  2  0
 12 30  1  0
 13 29  1  0
 14 25  1  0
 15 16  1  0
 15 21  1  0
 15 35  1  0
 17 22  1  0
 17 35  1  0
 18 20  1  0
 18 31  1  0
 19 22  1  0
 23 34  1  0
 25 28  1  0
 29 34  1  0
M  END
>  <ID>  (1) 
conformer_0

$$$$
