
     RDKit          3D

 30 30  0  0  0  0  0  0  0  0999 V2000
   27.6014   34.8296  105.0591 O   0  0  0  0  0  0  0  0  0  0  0  0
   23.9657   32.0086  105.5729 C   0  0  0  0  0  0  0  0  0  0  0  0
   25.2091   33.5393  107.1015 C   0  0  0  0  0  0  0  0  0  0  0  0
   29.4239   33.5480  102.5470 C   0  0  0  0  0  0  0  0  0  0  0  0
   28.2107   33.0738  103.1561 O   0  0  0  0  0  0  0  0  0  0  0  0
   25.5943   34.4887  108.1187 O   0  0  0  0  0  0  0  0  0  0  0  0
   31.6197   32.3531  103.0177 O   0  0  0  0  0  0  0  0  0  0  0  0
   30.7643   34.8088  105.5138 C   0  0  0  0  0  0  0  0  0  0  0  0
   23.7809   30.1391  104.0186 C   0  0  0  0  0  0  0  0  0  0  0  0
   24.3702   35.4302  105.9503 O   0  0  0  0  0  0  0  0  0  0  0  0
   25.1857   36.8527  100.6093 C   0  0  0  0  0  0  0  0  0  0  0  0
   26.2053   34.9302  104.6801 C   0  0  0  0  0  0  0  0  0  0  0  0
   28.1288   36.1104  103.1761 O   0  0  0  0  0  0  0  0  0  0  0  0
   31.8022   33.6920  103.1033 C   0  0  0  0  0  0  0  0  0  0  0  0
   21.8632   31.4091  104.6798 O   0  0  0  0  0  0  0  0  0  0  0  0
   30.4771   34.3275  103.1433 C   0  0  0  0  0  0  0  0  0  0  0  0
   25.7327   34.5757  103.2876 C   0  0  0  0  0  0  0  0  0  0  0  0
   24.1181   35.7965  100.2009 C   0  0  0  0  0  0  0  0  0  0  0  0
   25.0739   35.5775  102.5184 O   0  0  0  0  0  0  0  0  0  0  0  0
   28.5760   35.3500  104.2142 C   0  0  0  0  0  0  0  0  0  0  0  0
   23.1337   31.1603  104.7769 C   0  0  0  0  0  0  0  0  0  0  0  0
   25.2221   34.2450  105.6873 C   0  0  0  0  0  0  0  0  0  0  0  0
   32.6704   33.9854  104.1941 N   0  0  0  0  0  0  0  0  0  0  0  0
   32.4380   34.0519  101.7650 C   0  0  0  0  0  0  0  0  0  0  0  0
   23.2433   36.3532   99.2475 F   0  0  0  0  0  0  0  0  0  0  0  0
   26.0996   35.9946  101.4325 C   0  0  0  0  0  0  0  0  0  0  0  0
   32.0182   34.0104  105.4678 C   0  0  0  0  0  0  0  0  0  0  0  0
   30.5713   36.6009  103.9915 O   0  0  0  0  0  0  0  0  0  0  0  0
   30.0866   35.2421  104.2680 C   0  0  0  0  0  0  0  0  0  0  0  0
   24.4118   33.2492  104.8888 O   0  0  0  0  0  0  0  0  0  0  0  0
  1 12  1  0
  1 20  1  0
  2 21  1  0
  2 30  1  0
  3  6  1  0
  3 22  1  0
  4  5  1  0
  4 16  1  0
  7 14  1  0
  8 27  1  0
  8 29  1  0
  9 21  1  0
 10 22  1  0
 11 18  1  0
 11 26  1  0
 12 17  1  0
 12 22  1  0
 13 20  2  0
 14 16  1  0
 14 23  1  0
 14 24  1  0
 15 21  1  0
 16 29  1  0
 17 19  1  0
 18 25  1  0
 19 26  1  0
 20 29  1  0
 22 30  1  0
 23 27  1  0
 28 29  1  0
M  END
>  <ID>  (1) 
conformer_0

$$$$
