
     RDKit          3D

 24 24  0  0  0  0  0  0  0  0999 V2000
   29.4632   33.5670  103.1156 N   0  0  0  0  0  0  0  0  0  0  0  0
   31.5437   34.3205  103.9747 C   0  0  0  0  0  0  0  0  0  0  0  0
   26.9507   34.2969  104.9234 C   0  0  0  0  0  0  0  0  0  0  0  0
   26.9506   34.7232  103.4404 C   0  0  0  0  0  0  0  0  0  0  0  0
   29.3231   34.9006  103.4918 C   0  0  0  0  0  0  0  0  0  0  0  0
   28.1041   35.5224  103.1830 N   0  0  0  0  0  0  0  0  0  0  0  0
   30.6240   35.3832  103.9658 C   0  0  0  0  0  0  0  0  0  0  0  0
   25.7040   36.4343  101.0572 C   0  0  0  0  0  0  0  0  0  0  0  0
   23.5206   35.9163  100.0647 C   0  0  0  0  0  0  0  0  0  0  0  0
   25.1265   35.9462   99.7948 C   0  0  0  0  0  0  0  0  0  0  0  0
   32.7314   34.0494  104.3613 N   0  0  0  0  0  0  0  0  0  0  0  0
   24.8538   34.4812  106.4110 C   0  0  0  0  0  0  0  0  0  0  0  0
   25.5442   34.8169  102.9628 C   0  0  0  0  0  0  0  0  0  0  0  0
   24.7546   34.7541  108.7610 O   0  0  0  0  0  0  0  0  0  0  0  0
   29.8461   37.5576  103.8093 O   0  0  0  0  0  0  0  0  0  0  0  0
   25.3934   34.1932  107.8081 C   0  0  0  0  0  0  0  0  0  0  0  0
   31.4964   33.0046  102.0256 O   0  0  0  0  0  0  0  0  0  0  0  0
   25.0247   35.5109  101.9642 N   0  0  0  0  0  0  0  0  0  0  0  0
   24.6234   34.0522  103.4219 O   0  0  0  0  0  0  0  0  0  0  0  0
   26.4538   33.4852  107.8159 O   0  0  0  0  0  0  0  0  0  0  0  0
   25.9559   35.2376  105.6962 C   0  0  0  0  0  0  0  0  0  0  0  0
   22.9916   36.7731   99.1153 N   0  0  0  0  0  0  0  0  0  0  0  0
   30.8799   36.6948  104.0985 N   0  0  0  0  0  0  0  0  0  0  0  0
   30.8370   33.2523  103.1234 C   0  0  0  0  0  0  0  0  0  0  0  0
  1  5  2  0
  1 24  1  0
  2  7  1  0
  2 11  2  0
  2 24  1  0
  3  4  1  0
  3 21  1  0
  4  6  1  0
  4 13  1  0
  5  6  1  0
  5  7  1  0
  7 23  2  3
  8 10  1  0
  8 18  1  0
  9 10  1  0
  9 22  1  0
 12 16  1  0
 12 21  1  0
 13 18  1  0
 13 19  2  0
 14 16  2  0
 15 23  1  0
 16 20  1  0
 17 24  1  0
M  END
>  <ID>  (1) 
conformer_0

$$$$
