
     RDKit          3D

 30 32  0  0  0  0  0  0  0  0999 V2000
   29.2181   36.9044  103.6116 O   0  0  0  0  0  0  0  0  0  0  0  0
   32.6595   33.3565  104.0977 N   0  0  0  0  0  0  0  0  0  0  0  0
   25.5482   34.7734  105.1529 C   0  0  0  0  0  0  0  0  0  0  0  0
   32.1841   33.7032  101.8161 O   0  0  0  0  0  0  0  0  0  0  0  0
   31.7943   33.3546  103.0461 C   0  0  0  0  0  0  0  0  0  0  0  0
   29.5651   32.6531  102.4420 F   0  0  0  0  0  0  0  0  0  0  0  0
   23.5778   36.0662   99.6563 C   0  0  0  0  0  0  0  0  0  0  0  0
   24.6756   34.7831  104.0971 C   0  0  0  0  0  0  0  0  0  0  0  0
   24.1323   33.6220  106.7694 C   0  0  0  0  0  0  0  0  0  0  0  0
   26.3797   35.5907  102.7367 C   0  0  0  0  0  0  0  0  0  0  0  0
   30.3342   33.4068  103.3053 C   0  0  0  0  0  0  0  0  0  0  0  0
   22.1975   34.4406  108.0250 C   0  0  0  0  0  0  0  0  0  0  0  0
   31.8776   35.2869  105.1376 O   0  0  0  0  0  0  0  0  0  0  0  0
   30.9520   35.5552  104.2369 C   0  0  0  0  0  0  0  0  0  0  0  0
   22.6588   35.1087   99.6309 F   0  0  0  0  0  0  0  0  0  0  0  0
   24.1674   35.1827  101.8047 C   0  0  0  0  0  0  0  0  0  0  0  0
   29.8961   34.7274  103.7440 C   0  0  0  0  0  0  0  0  0  0  0  0
   26.8353   36.4143  101.2234 S   0  0  0  0  0  0  0  0  0  0  0  0
   24.3487   35.7745  100.6893 C   0  0  0  0  0  0  0  0  0  0  0  0
   26.8587   35.0160  104.9661 C   0  0  0  0  0  0  0  0  0  0  0  0
   21.1234   33.8384  108.2345 O   0  0  0  0  0  0  0  0  0  0  0  0
   23.3199   37.2344   99.2200 F   0  0  0  0  0  0  0  0  0  0  0  0
   30.5762   36.8881  103.9345 O   0  0  0  0  0  0  0  0  0  0  0  0
   25.1775   34.5535  106.5184 N   0  0  0  0  0  0  0  0  0  0  0  0
   28.7781   35.5623  103.6118 C   0  0  0  0  0  0  0  0  0  0  0  0
   25.0556   35.1794  102.8808 C   0  0  0  0  0  0  0  0  0  0  0  0
   32.5607   34.1377  105.2802 C   0  0  0  0  0  0  0  0  0  0  0  0
   27.3515   35.3904  103.7221 C   0  0  0  0  0  0  0  0  0  0  0  0
   22.7577   34.3885  106.5647 C   0  0  0  0  0  0  0  0  0  0  0  0
   22.9838   34.9311  108.8846 O   0  0  0  0  0  0  0  0  0  0  0  0
  1 23  1  0
  1 25  1  0
  2  5  1  0
  2 27  1  0
  3  8  2  0
  3 20  1  0
  3 24  1  0
  4  5  2  0
  5 11  1  0
  6 11  1  0
  7 15  1  0
  7 19  1  0
  7 22  1  0
  8 26  1  0
  9 24  1  0
  9 29  1  0
 10 18  1  0
 10 26  2  0
 10 28  1  0
 11 17  1  0
 12 21  2  0
 12 29  1  0
 12 30  1  0
 13 14  1  0
 13 27  1  0
 14 17  1  0
 14 23  1  0
 16 19  2  3
 16 26  1  0
 17 25  1  0
 20 28  2  0
 25 28  1  0
M  END
>  <ID>  (1) 
conformer_0

$$$$
