
     RDKit          3D

 34 37  0  0  0  0  0  0  0  0999 V2000
   27.0092   34.3600  104.5457 C   0  0  0  0  0  0  0  0  0  0  0  0
   29.1380   33.9770  105.0854 C   0  0  0  0  0  0  0  0  0  0  0  0
   29.9843   32.7803  102.6824 O   0  0  0  0  0  0  0  0  0  0  0  0
   25.9947   33.3180  107.7455 O   0  0  0  0  0  0  0  0  0  0  0  0
   25.5877   34.0789  104.3247 C   0  0  0  0  0  0  0  0  0  0  0  0
   22.8659   32.4991  106.6417 O   0  0  0  0  0  0  0  0  0  0  0  0
   25.5367   36.4994  100.7466 C   0  0  0  0  0  0  0  0  0  0  0  0
   26.4120   35.6435  102.7112 C   0  0  0  0  0  0  0  0  0  0  0  0
   30.8873   33.5548  103.4766 C   0  0  0  0  0  0  0  0  0  0  0  0
   31.5216   34.7009  105.1285 C   0  0  0  0  0  0  0  0  0  0  0  0
   24.1468   33.9834  108.7059 O   0  0  0  0  0  0  0  0  0  0  0  0
   32.2068   33.5845  102.9329 C   0  0  0  0  0  0  0  0  0  0  0  0
   26.5719   36.4205  101.6061 C   0  0  0  0  0  0  0  0  0  0  0  0
   24.3170   35.7983  101.0027 C   0  0  0  0  0  0  0  0  0  0  0  0
   27.9114   33.7477  105.2785 N   0  0  0  0  0  0  0  0  0  0  0  0
   24.3799   31.8029  104.8096 C   0  0  0  0  0  0  0  0  0  0  0  0
   24.9336   33.9378  107.7861 C   0  0  0  0  0  0  0  0  0  0  0  0
   30.2279   34.5198  104.3934 C   0  0  0  0  0  0  0  0  0  0  0  0
   23.7993   32.8804  105.6159 N   0  0  0  0  0  0  0  0  0  0  0  0
   23.4461   36.5990   99.1456 C   0  0  0  0  0  0  0  0  0  0  0  0
   24.1733   35.0291  102.1717 C   0  0  0  0  0  0  0  0  0  0  0  0
   33.2770   33.4868  103.6863 N   0  0  0  0  0  0  0  0  0  0  0  0
   23.1948   33.9779  104.8438 C   0  0  0  0  0  0  0  0  0  0  0  0
   24.7461   34.8841  106.6346 C   0  0  0  0  0  0  0  0  0  0  0  0
   25.4838   32.5315  103.9968 O   0  0  0  0  0  0  0  0  0  0  0  0
   29.8193   35.8276  103.8038 N   0  0  0  0  0  0  0  0  0  0  0  0
   30.5890   36.8200  103.7306 O   0  0  0  0  0  0  0  0  0  0  0  0
   25.2654   34.9323  103.0298 C   0  0  0  0  0  0  0  0  0  0  0  0
   23.2789   31.2485  103.7981 C   0  0  0  0  0  0  0  0  0  0  0  0
   23.3659   35.8491  100.1646 O   0  0  0  0  0  0  0  0  0  0  0  0
   32.3165   33.9427  101.6550 O   0  0  0  0  0  0  0  0  0  0  0  0
   24.5233   34.2160  105.3324 C   0  0  0  0  0  0  0  0  0  0  0  0
   28.5692   36.0034  103.5001 C   0  0  0  0  0  0  0  0  0  0  0  0
   27.4287   35.3750  103.6468 N   0  0  0  0  0  0  0  0  0  0  0  0
  1  5  1  0
  1 15  1  0
  1 34  1  0
  2 15  2  0
  2 18  1  0
  3  9  1  0
  4 17  2  0
  5 25  1  0
  5 28  1  0
  5 32  1  0
  6 19  1  0
  7 13  2  0
  7 14  1  0
  8 13  1  0
  8 28  2  0
  8 34  1  0
  9 12  1  0
  9 18  1  0
 10 18  1  0
 11 17  1  0
 12 22  1  0
 12 31  2  0
 14 21  2  0
 14 30  1  0
 16 19  1  0
 16 25  1  0
 16 29  1  0
 17 24  1  0
 18 26  1  0
 19 23  1  0
 20 30  1  0
 21 28  1  0
 23 32  1  0
 24 32  1  0
 26 27  1  0
 26 33  1  0
 33 34  1  0
M  END
>  <ID>  (1) 
conformer_0

$$$$
