
     RDKit          3D

 29 32  0  0  0  0  0  0  0  0999 V2000
   31.8116   33.7543  103.2342 C   0  0  0  0  0  0  0  0  0  0  0  0
   32.4327   33.7600  104.4337 O   0  0  0  0  0  0  0  0  0  0  0  0
   21.9261   33.5495  107.2888 O   0  0  0  0  0  0  0  0  0  0  0  0
   23.0720   34.3102  107.0045 C   0  0  0  0  0  0  0  0  0  0  0  0
   25.1223   34.3842  105.8258 N   0  0  0  0  0  0  0  0  0  0  0  0
   30.1236   33.7893  104.8906 O   0  0  0  0  0  0  0  0  0  0  0  0
   24.0799   34.1283  108.1407 C   0  0  0  0  0  0  0  0  0  0  0  0
   23.5600   34.1004  109.3320 O   0  0  0  0  0  0  0  0  0  0  0  0
   26.0717   34.5121  104.9402 C   0  0  0  0  0  0  0  0  0  0  0  0
   24.3520   35.4830  101.8580 C   0  0  0  0  0  0  0  0  0  0  0  0
   29.5558   34.7501  103.7949 C   0  0  0  0  0  0  0  0  0  0  0  0
   23.7785   33.9486  105.6577 C   0  0  0  0  0  0  0  0  0  0  0  0
   25.3708   34.3633  108.1568 O   0  0  0  0  0  0  0  0  0  0  0  0
   28.1251   34.8987  103.9063 C   0  0  0  0  0  0  0  0  0  0  0  0
   29.8360   37.0628  103.5872 O   0  0  0  0  0  0  0  0  0  0  0  0
   25.7564   34.9190  103.6525 C   0  0  0  0  0  0  0  0  0  0  0  0
   30.3524   33.6312  103.5077 C   0  0  0  0  0  0  0  0  0  0  0  0
   32.2397   33.8467  101.9820 O   0  0  0  0  0  0  0  0  0  0  0  0
   25.3830   36.2460  101.2791 C   0  0  0  0  0  0  0  0  0  0  0  0
   25.0573   37.0460  100.3731 O   0  0  0  0  0  0  0  0  0  0  0  0
   26.7396   36.1105  101.8019 C   0  0  0  0  0  0  0  0  0  0  0  0
   30.3395   35.9871  103.8982 C   0  0  0  0  0  0  0  0  0  0  0  0
   31.4187   35.7732  104.7362 O   0  0  0  0  0  0  0  0  0  0  0  0
   27.4777   34.4296  105.0936 C   0  0  0  0  0  0  0  0  0  0  0  0
   29.7189   32.6819  102.5436 C   0  0  0  0  0  0  0  0  0  0  0  0
   24.5432   34.8770  103.0547 C   0  0  0  0  0  0  0  0  0  0  0  0
   26.9535   35.3655  103.0106 C   0  0  0  0  0  0  0  0  0  0  0  0
   31.3915   34.4321  105.3366 C   0  0  0  0  0  0  0  0  0  0  0  0
   23.7393   36.6008   99.7851 F   0  0  0  0  0  0  0  0  0  0  0  0
  1  2  1  0
  1 17  1  0
  1 18  2  0
  2 28  1  0
  3  4  1  0
  4  7  1  0
  4 12  1  0
  5  9  1  0
  5 12  1  0
  6 17  1  0
  6 28  1  0
  7  8  2  0
  7 13  1  0
  9 16  1  0
  9 24  1  0
 10 19  2  0
 10 26  1  0
 11 14  1  0
 11 17  1  0
 11 22  1  0
 14 24  1  0
 14 27  1  0
 15 22  2  0
 16 26  2  0
 16 27  1  0
 17 25  1  0
 19 20  1  0
 19 21  1  0
 20 29  1  0
 21 27  2  0
 22 23  1  0
 23 28  1  0
M  END
>  <ID>  (1) 
conformer_0

$$$$
