
     RDKit          3D

 24 25  0  0  0  0  0  0  0  0999 V2000
   28.2267   35.0452  103.9414 C   0  0  0  0  0  0  0  0  0  0  0  0
   26.8085   34.5781  104.3085 C   0  0  0  0  0  0  0  0  0  0  0  0
   26.5296   35.6517  101.8542 C   0  0  0  0  0  0  0  0  0  0  0  0
   24.2694   36.1467  100.4365 C   0  0  0  0  0  0  0  0  0  0  0  0
   26.4167   33.4055  107.7955 O   0  0  0  0  0  0  0  0  0  0  0  0
   32.6109   33.6824  104.3170 C   0  0  0  0  0  0  0  0  0  0  0  0
   25.1003   34.5485  106.2234 C   0  0  0  0  0  0  0  0  0  0  0  0
   25.3776   34.1459  107.6634 C   0  0  0  0  0  0  0  0  0  0  0  0
   24.0417   35.4595  105.9300 N   0  0  0  0  0  0  0  0  0  0  0  0
   30.8375   35.7907  103.5239 N   0  0  0  0  0  0  0  0  0  0  0  0
   28.5995   36.3802  103.8901 C   0  0  0  0  0  0  0  0  0  0  0  0
   31.5601   33.4142  103.2975 C   0  0  0  0  0  0  0  0  0  0  0  0
   29.1918   34.1268  103.7452 C   0  0  0  0  0  0  0  0  0  0  0  0
   25.3285   35.1722  102.3478 C   0  0  0  0  0  0  0  0  0  0  0  0
   26.6367   36.2938  100.7365 C   0  0  0  0  0  0  0  0  0  0  0  0
   30.5020   34.4665  103.5278 C   0  0  0  0  0  0  0  0  0  0  0  0
   26.4484   35.0489  105.7338 C   0  0  0  0  0  0  0  0  0  0  0  0
   25.4228   34.3441  103.6194 C   0  0  0  0  0  0  0  0  0  0  0  0
   23.2287   36.4530   99.6851 F   0  0  0  0  0  0  0  0  0  0  0  0
   24.0948   35.4107  101.6366 C   0  0  0  0  0  0  0  0  0  0  0  0
   30.8057   32.3601  102.4324 C   0  0  0  0  0  0  0  0  0  0  0  0
   24.6645   34.6664  108.5775 O   0  0  0  0  0  0  0  0  0  0  0  0
   25.4898   36.5436  100.0011 C   0  0  0  0  0  0  0  0  0  0  0  0
   29.8714   36.7458  103.6928 N   0  0  0  0  0  0  0  0  0  0  0  0
  1  2  1  0
  1 11  1  0
  1 13  2  0
  2 17  1  0
  2 18  1  0
  3 14  1  0
  3 15  2  0
  4 19  1  0
  4 20  1  0
  4 23  2  0
  5  8  2  0
  6 12  1  0
  7  8  1  0
  7  9  1  0
  7 17  1  0
  8 22  1  0
 10 16  2  0
 10 24  1  0
 11 24  2  0
 12 16  1  0
 12 21  1  0
 13 16  1  0
 14 18  1  0
 14 20  1  0
 15 23  1  0
M  END
>  <ID>  (1) 
conformer_0

$$$$
