
     RDKit          3D

 26 28  0  0  0  0  0  0  0  0999 V2000
   25.4136   34.7080  103.9685 C   0  0  0  0  0  0  0  0  0  0  0  0
   32.2200   33.8109  101.7894 O   0  0  0  0  0  0  0  0  0  0  0  0
   31.8271   33.5440  102.9864 C   0  0  0  0  0  0  0  0  0  0  0  0
   29.8113   34.9991  104.0276 C   0  0  0  0  0  0  0  0  0  0  0  0
   28.8764   36.0555  103.7084 C   0  0  0  0  0  0  0  0  0  0  0  0
   31.0497   35.5054  104.5435 C   0  0  0  0  0  0  0  0  0  0  0  0
   23.9871   34.4896  106.0065 C   0  0  0  0  0  0  0  0  0  0  0  0
   24.3248   34.0863  104.6437 C   0  0  0  0  0  0  0  0  0  0  0  0
   22.4563   34.6408  106.0955 C   0  0  0  0  0  0  0  0  0  0  0  0
   25.3586   35.3776  102.6767 C   0  0  0  0  0  0  0  0  0  0  0  0
   23.9328   32.8917  104.1208 O   0  0  0  0  0  0  0  0  0  0  0  0
   29.4434   33.6044  103.9876 C   0  0  0  0  0  0  0  0  0  0  0  0
   26.1345   36.2750  100.6398 C   0  0  0  0  0  0  0  0  0  0  0  0
   29.1830   37.2075  103.6563 O   0  0  0  0  0  0  0  0  0  0  0  0
   24.8502   34.2243  107.2091 C   0  0  0  0  0  0  0  0  0  0  0  0
   27.5134   35.5882  103.5234 C   0  0  0  0  0  0  0  0  0  0  0  0
   26.0841   33.8923  107.1769 O   0  0  0  0  0  0  0  0  0  0  0  0
   26.6329   35.8943  102.2986 C   0  0  0  0  0  0  0  0  0  0  0  0
   24.3880   34.6044  108.3246 O   0  0  0  0  0  0  0  0  0  0  0  0
   29.3226   33.1384  102.6110 C   0  0  0  0  0  0  0  0  0  0  0  0
   31.8208   34.3901  105.1709 C   0  0  0  0  0  0  0  0  0  0  0  0
   32.6132   33.8270  104.0626 N   0  0  0  0  0  0  0  0  0  0  0  0
   26.7406   34.8502  104.4007 C   0  0  0  0  0  0  0  0  0  0  0  0
   24.4944   36.1727  100.6533 C   0  0  0  0  0  0  0  0  0  0  0  0
   24.2709   35.5580  101.9355 O   0  0  0  0  0  0  0  0  0  0  0  0
   30.5593   32.8848  103.3303 C   0  0  0  0  0  0  0  0  0  0  0  0
  1  8  1  0
  1 10  1  0
  1 23  1  0
  2  3  2  0
  3 22  1  0
  3 26  1  0
  4  5  1  0
  4  6  1  0
  4 12  1  0
  5 14  2  0
  5 16  1  0
  6 21  1  0
  7  8  1  0
  7  9  1  0
  7 15  1  0
  8 11  1  0
 10 18  2  0
 10 25  1  0
 12 20  1  0
 13 18  1  0
 13 24  1  0
 15 17  2  0
 15 19  1  0
 16 18  1  0
 16 23  1  0
 20 26  1  0
 21 22  1  0
 24 25  1  0
M  END
>  <ID>  (1) 
conformer_0

$$$$
