
     RDKit          3D

 27 28  0  0  0  0  0  0  0  0999 V2000
   29.3518   37.9214  103.8525 O   0  0  0  0  0  0  0  0  0  0  0  0
   27.7251   34.8487  103.8210 C   0  0  0  0  0  0  0  0  0  0  0  0
   32.0962   34.0732  104.9384 C   0  0  0  0  0  0  0  0  0  0  0  0
   28.7335   33.9806  103.7884 N   0  0  0  0  0  0  0  0  0  0  0  0
   24.2294   34.5768  108.2345 O   0  0  0  0  0  0  0  0  0  0  0  0
   22.9970   36.5107   99.3148 F   0  0  0  0  0  0  0  0  0  0  0  0
   25.1139   34.0476  107.5022 C   0  0  0  0  0  0  0  0  0  0  0  0
   23.7024   35.1380  101.3068 C   0  0  0  0  0  0  0  0  0  0  0  0
   29.1396   36.6550  103.7624 C   0  0  0  0  0  0  0  0  0  0  0  0
   26.2214   33.5261  107.8129 O   0  0  0  0  0  0  0  0  0  0  0  0
   24.8830   34.1586  105.9903 C   0  0  0  0  0  0  0  0  0  0  0  0
   31.4625   33.0085  102.5902 C   0  0  0  0  0  0  0  0  0  0  0  0
   23.8432   36.0791  100.2300 C   0  0  0  0  0  0  0  0  0  0  0  0
   33.4538   33.7201  104.5983 O   0  0  0  0  0  0  0  0  0  0  0  0
   31.1896   33.5888  103.9065 C   0  0  0  0  0  0  0  0  0  0  0  0
   26.3520   34.2576  104.0466 C   0  0  0  0  0  0  0  0  0  0  0  0
   25.2158   36.5884  100.2606 C   0  0  0  0  0  0  0  0  0  0  0  0
   32.3164   33.8954  101.7953 O   0  0  0  0  0  0  0  0  0  0  0  0
   25.0253   35.4246  105.5944 O   0  0  0  0  0  0  0  0  0  0  0  0
   25.9333   36.0788  101.3438 C   0  0  0  0  0  0  0  0  0  0  0  0
   27.8803   36.1919  103.8373 C   0  0  0  0  0  0  0  0  0  0  0  0
   30.1882   35.8076  103.6670 N   0  0  0  0  0  0  0  0  0  0  0  0
   25.2061   34.3218  103.2315 C   0  0  0  0  0  0  0  0  0  0  0  0
   26.1225   34.2666  105.4883 C   0  0  0  0  0  0  0  0  0  0  0  0
   24.9416   35.0989  102.0443 C   0  0  0  0  0  0  0  0  0  0  0  0
   29.9825   34.4743  103.7539 C   0  0  0  0  0  0  0  0  0  0  0  0
   24.0416   33.1551  105.5288 F   0  0  0  0  0  0  0  0  0  0  0  0
  1  9  2  0
  2  4  2  0
  2 16  1  0
  2 21  1  0
  3 14  1  0
  3 15  1  0
  4 26  1  0
  5  7  2  0
  6 13  1  0
  7 10  1  0
  7 11  1  0
  8 13  1  0
  8 25  1  0
  9 21  1  0
  9 22  1  0
 11 19  1  0
 11 24  1  0
 11 27  1  0
 12 15  1  0
 12 18  1  0
 13 17  1  0
 15 26  1  0
 16 23  1  0
 16 24  2  3
 17 20  1  0
 20 25  1  0
 22 26  2  0
 23 25  2  3
M  END
>  <ID>  (1) 
conformer_0

$$$$
