
     RDKit          3D

 25 26  0  0  0  0  0  0  0  0999 V2000
   29.2363   33.7827  103.4397 O   0  0  0  0  0  0  0  0  0  0  0  0
   28.1740   34.7261  103.5965 C   0  0  0  0  0  0  0  0  0  0  0  0
   26.2725   35.4013  102.2033 C   0  0  0  0  0  0  0  0  0  0  0  0
   30.2461   33.1014  102.7656 C   0  0  0  0  0  0  0  0  0  0  0  0
   23.1853   33.6003  106.8959 C   0  0  0  0  0  0  0  0  0  0  0  0
   29.7270   35.0387  104.0037 C   0  0  0  0  0  0  0  0  0  0  0  0
   29.6715   36.5325  103.9556 O   0  0  0  0  0  0  0  0  0  0  0  0
   25.8749   35.6210  100.8297 C   0  0  0  0  0  0  0  0  0  0  0  0
   32.7207   33.4189  102.8896 O   0  0  0  0  0  0  0  0  0  0  0  0
   31.2324   34.8150  104.0319 C   0  0  0  0  0  0  0  0  0  0  0  0
   31.9742   34.6435  105.1098 N   0  0  0  0  0  0  0  0  0  0  0  0
   25.9020   34.7209  104.5338 C   0  0  0  0  0  0  0  0  0  0  0  0
   23.6917   33.7953  105.4385 C   0  0  0  0  0  0  0  0  0  0  0  0
   25.4066   35.1090  103.2895 C   0  0  0  0  0  0  0  0  0  0  0  0
   25.5372   33.7313  106.8393 O   0  0  0  0  0  0  0  0  0  0  0  0
   27.6250   35.2988  102.4404 C   0  0  0  0  0  0  0  0  0  0  0  0
   24.8193   36.6149  100.5912 C   0  0  0  0  0  0  0  0  0  0  0  0
   24.5215   34.6175  108.6614 O   0  0  0  0  0  0  0  0  0  0  0  0
   27.2670   34.5541  104.6862 C   0  0  0  0  0  0  0  0  0  0  0  0
   23.8877   36.2351   99.6960 N   0  0  0  0  0  0  0  0  0  0  0  0
   24.9653   37.6912  101.0646 O   0  0  0  0  0  0  0  0  0  0  0  0
   24.3877   33.7979  107.7689 C   0  0  0  0  0  0  0  0  0  0  0  0
   31.5256   33.9713  102.8305 C   0  0  0  0  0  0  0  0  0  0  0  0
   25.0209   34.4765  105.6586 C   0  0  0  0  0  0  0  0  0  0  0  0
   24.1355   35.1605  103.0366 F   0  0  0  0  0  0  0  0  0  0  0  0
  1  2  1  0
  1  4  1  0
  2 16  1  0
  2 19  1  0
  3  8  1  0
  3 14  1  0
  3 16  2  0
  4 23  1  0
  5 13  1  0
  5 22  1  0
  6  7  1  0
  6 10  1  0
  8 17  1  0
  9 23  1  0
 10 11  2  0
 10 23  1  0
 12 14  2  0
 12 19  1  0
 12 24  1  0
 13 24  1  0
 14 25  1  0
 15 22  1  0
 15 24  1  0
 17 20  1  0
 17 21  2  0
 18 22  2  0
M  END
>  <ID>  (1) 
conformer_0

$$$$
