
     RDKit          3D

 28 28  0  0  0  0  0  0  0  0999 V2000
   23.8161   34.2179  106.5607 C   0  0  0  0  0  0  0  0  0  0  0  0
   25.1341   36.0434  100.7249 C   0  0  0  0  0  0  0  0  0  0  0  0
   30.0755   33.1299  102.6898 C   0  0  0  0  0  0  0  0  0  0  0  0
   27.5240   35.1174  103.5904 C   0  0  0  0  0  0  0  0  0  0  0  0
   24.0777   36.8662  100.8767 O   0  0  0  0  0  0  0  0  0  0  0  0
   29.6452   36.3325  103.8076 C   0  0  0  0  0  0  0  0  0  0  0  0
   24.7887   35.0227  102.9734 C   0  0  0  0  0  0  0  0  0  0  0  0
   26.2567   36.0340   99.9177 O   0  0  0  0  0  0  0  0  0  0  0  0
   26.0459   33.8746  107.5089 O   0  0  0  0  0  0  0  0  0  0  0  0
   28.9429   34.9992  103.7860 N   0  0  0  0  0  0  0  0  0  0  0  0
   31.5868   34.3462  104.5533 C   0  0  0  0  0  0  0  0  0  0  0  0
   30.8862   36.7465  104.0677 O   0  0  0  0  0  0  0  0  0  0  0  0
   29.1732   33.4743  103.9128 C   0  0  0  0  0  0  0  0  0  0  0  0
   32.1123   32.2650  103.5350 O   0  0  0  0  0  0  0  0  0  0  0  0
   32.9484   34.3786  105.1859 C   0  0  0  0  0  0  0  0  0  0  0  0
   25.6358   35.5570  102.0617 C   0  0  0  0  0  0  0  0  0  0  0  0
   26.5989   34.6439  104.5265 C   0  0  0  0  0  0  0  0  0  0  0  0
   24.1635   34.0125  105.1886 C   0  0  0  0  0  0  0  0  0  0  0  0
   23.9575   35.8826   99.9642 C   0  0  0  0  0  0  0  0  0  0  0  0
   26.9994   35.6168  102.3710 C   0  0  0  0  0  0  0  0  0  0  0  0
   32.1186   34.0978  102.0211 O   0  0  0  0  0  0  0  0  0  0  0  0
   25.1955   34.5887  104.2612 C   0  0  0  0  0  0  0  0  0  0  0  0
   28.9096   37.3150  103.5166 O   0  0  0  0  0  0  0  0  0  0  0  0
   24.3362   34.3158  108.8376 O   0  0  0  0  0  0  0  0  0  0  0  0
   30.5306   34.6142  105.6684 C   0  0  0  0  0  0  0  0  0  0  0  0
   22.5793   33.5754  106.9618 O   0  0  0  0  0  0  0  0  0  0  0  0
   24.7887   34.0096  107.7087 C   0  0  0  0  0  0  0  0  0  0  0  0
   31.5873   33.5368  103.2293 C   0  0  0  0  0  0  0  0  0  0  0  0
  1 18  1  0
  1 26  1  0
  1 27  1  0
  2  8  1  0
  2 16  1  0
  2 19  1  0
  3 13  1  0
  3 28  1  0
  4 10  1  0
  4 17  2  0
  4 20  1  0
  5 19  1  0
  6 10  1  0
  6 12  2  0
  6 23  1  0
  7 16  2  0
  7 22  1  0
  9 27  2  0
 10 13  1  0
 11 15  1  0
 11 25  1  0
 11 28  1  0
 14 28  1  0
 16 20  1  0
 17 22  1  0
 18 22  1  0
 21 28  1  0
 24 27  1  0
M  END
>  <ID>  (1) 
conformer_0

$$$$
