
     RDKit          3D

 49 55  0  0  0  0  0  0  0  0999 V2000
   31.0920   32.1496  102.4699 O   0  0  0  0  0  0  0  0  0  0  0  0
   25.4386   36.2839  101.0247 C   0  0  0  0  0  0  0  0  0  0  0  0
   25.3536   35.4749  103.6740 O   0  0  0  0  0  0  0  0  0  0  0  0
   24.5640   32.0536  104.3132 C   0  0  0  0  0  0  0  0  0  0  0  0
   29.8028   32.7758  102.5647 C   0  0  0  0  0  0  0  0  0  0  0  0
   23.6190   35.9734   99.5998 C   0  0  0  0  0  0  0  0  0  0  0  0
   32.6268   33.7036  101.6051 O   0  0  0  0  0  0  0  0  0  0  0  0
   25.7259   35.1960  106.0057 C   0  0  0  0  0  0  0  0  0  0  0  0
   28.7079   34.6187  103.9683 C   0  0  0  0  0  0  0  0  0  0  0  0
   25.3461   34.0371  106.7074 C   0  0  0  0  0  0  0  0  0  0  0  0
   23.4935   33.9403  103.2469 C   0  0  0  0  0  0  0  0  0  0  0  0
   23.3685   35.2131  100.7995 C   0  0  0  0  0  0  0  0  0  0  0  0
   23.2094   34.4974  107.8806 N   0  0  0  0  0  0  0  0  0  0  0  0
   23.4490   34.3691  110.1748 O   0  0  0  0  0  0  0  0  0  0  0  0
   32.2438   33.0034  102.8011 C   0  0  0  0  0  0  0  0  0  0  0  0
   24.5135   34.8948  102.7999 C   0  0  0  0  0  0  0  0  0  0  0  0
   32.5344   34.3444  105.7918 C   0  0  0  0  0  0  0  0  0  0  0  0
   27.6104   35.3585  104.3249 C   0  0  0  0  0  0  0  0  0  0  0  0
   31.7463   33.9628  103.7472 C   0  0  0  0  0  0  0  0  0  0  0  0
   21.4085   33.4728  109.1492 C   0  0  0  0  0  0  0  0  0  0  0  0
   28.8090   33.2301  103.4724 C   0  0  0  0  0  0  0  0  0  0  0  0
   22.1217   28.1275  106.7500 C   0  0  0  0  0  0  0  0  0  0  0  0
   24.8842   36.6636   99.7509 C   0  0  0  0  0  0  0  0  0  0  0  0
   25.7609   33.6451  107.7456 O   0  0  0  0  0  0  0  0  0  0  0  0
   21.7010   30.1695  105.5641 C   0  0  0  0  0  0  0  0  0  0  0  0
   23.8467   29.2519  105.4996 C   0  0  0  0  0  0  0  0  0  0  0  0
   29.7807   35.4543  103.8916 N   0  0  0  0  0  0  0  0  0  0  0  0
   22.9714   33.9345  106.5958 C   0  0  0  0  0  0  0  0  0  0  0  0
   29.1996   36.7490  103.9850 C   0  0  0  0  0  0  0  0  0  0  0  0
   24.4765   35.4642  101.5453 C   0  0  0  0  0  0  0  0  0  0  0  0
   33.8014   34.3393  105.1269 O   0  0  0  0  0  0  0  0  0  0  0  0
   31.2506   35.2753  103.6217 C   0  0  0  0  0  0  0  0  0  0  0  0
   22.9775   30.2103  105.1182 C   0  0  0  0  0  0  0  0  0  0  0  0
   22.7592   34.6547  111.3783 C   0  0  0  0  0  0  0  0  0  0  0  0
   22.6051   34.2584  109.0705 C   0  0  0  0  0  0  0  0  0  0  0  0
   23.4371   28.1906  106.3368 C   0  0  0  0  0  0  0  0  0  0  0  0
   21.2507   29.1147  106.3726 C   0  0  0  0  0  0  0  0  0  0  0  0
   27.8692   36.7195  104.2444 N   0  0  0  0  0  0  0  0  0  0  0  0
   26.2209   34.9919  104.6352 C   0  0  0  0  0  0  0  0  0  0  0  0
   22.0595   32.2855  104.6344 O   0  0  0  0  0  0  0  0  0  0  0  0
   20.9582   31.3657  105.2545 C   0  0  0  0  0  0  0  0  0  0  0  0
   21.5558   33.9426  111.5623 N   0  0  0  0  0  0  0  0  0  0  0  0
   23.1894   31.3979  104.3623 C   0  0  0  0  0  0  0  0  0  0  0  0
   31.4702   33.4047  105.0302 C   0  0  0  0  0  0  0  0  0  0  0  0
   24.2789   33.5180  104.3991 N   0  0  0  0  0  0  0  0  0  0  0  0
   20.8247   33.2918  110.4917 C   0  0  0  0  0  0  0  0  0  0  0  0
   29.8726   37.7608  103.8680 O   0  0  0  0  0  0  0  0  0  0  0  0
   24.2187   33.8814  105.7728 C   0  0  0  0  0  0  0  0  0  0  0  0
   20.0112   29.1801  106.7747 F   0  0  0  0  0  0  0  0  0  0  0  0
  1  5  1  0
  1 15  1  0
  2 23  1  0
  2 30  1  0
  3 16  1  0
  3 39  1  0
  4 43  1  0
  4 45  1  0
  5 21  1  0
  6 12  1  0
  6 23  1  0
  7 15  1  0
  8 10  1  0
  8 39  1  0
  9 18  1  0
  9 21  1  0
  9 27  1  0
 10 24  2  0
 10 48  1  0
 11 16  1  0
 11 45  1  0
 12 30  1  0
 13 28  1  0
 13 35  1  0
 14 34  1  0
 14 35  1  0
 15 19  1  0
 16 30  1  0
 17 31  1  0
 17 44  1  0
 18 38  1  0
 18 39  1  0
 19 32  1  0
 19 44  1  0
 20 35  1  0
 20 46  1  0
 22 36  1  0
 22 37  2  0
 25 33  1  0
 25 37  1  0
 25 41  1  0
 26 33  2  0
 26 36  1  0
 27 29  1  0
 27 32  1  0
 28 48  1  0
 29 38  1  0
 29 47  2  0
 33 43  1  0
 34 42  1  0
 37 49  1  0
 40 41  1  0
 40 43  1  0
 42 46  1  0
 45 48  1  0
M  END
>  <ID>  (1) 
conformer_0

$$$$
