
     RDKit          3D

 27 28  0  0  0  0  0  0  0  0999 V2000
   26.2391   34.4939  103.9139 C   0  0  0  0  0  0  0  0  0  0  0  0
   24.3738   34.0395  108.2490 C   0  0  0  0  0  0  0  0  0  0  0  0
   32.0352   34.7245  104.3537 C   0  0  0  0  0  0  0  0  0  0  0  0
   25.0096   35.3539  101.9583 C   0  0  0  0  0  0  0  0  0  0  0  0
   24.1550   36.2393   99.8687 N   0  0  0  0  0  0  0  0  0  0  0  0
   29.2331   36.9125  103.8119 C   0  0  0  0  0  0  0  0  0  0  0  0
   32.3796   33.4723  104.0201 C   0  0  0  0  0  0  0  0  0  0  0  0
   28.5111   34.6458  103.4967 C   0  0  0  0  0  0  0  0  0  0  0  0
   28.2796   35.9940  103.5849 C   0  0  0  0  0  0  0  0  0  0  0  0
   30.7981   35.1382  103.9606 C   0  0  0  0  0  0  0  0  0  0  0  0
   25.9801   37.2608  100.9672 O   0  0  0  0  0  0  0  0  0  0  0  0
   27.4601   33.7238  103.5540 C   0  0  0  0  0  0  0  0  0  0  0  0
   25.5504   34.1639  107.8072 O   0  0  0  0  0  0  0  0  0  0  0  0
   23.8104   34.3166  104.8993 C   0  0  0  0  0  0  0  0  0  0  0  0
   25.1222   36.3602  100.8550 C   0  0  0  0  0  0  0  0  0  0  0  0
   29.8345   34.2339  103.4829 C   0  0  0  0  0  0  0  0  0  0  0  0
   23.2091   33.8560  107.3785 C   0  0  0  0  0  0  0  0  0  0  0  0
   24.0950   34.1765  109.4855 O   0  0  0  0  0  0  0  0  0  0  0  0
   30.2880   33.0063  103.0858 C   0  0  0  0  0  0  0  0  0  0  0  0
   31.5459   32.6746  103.3119 N   0  0  0  0  0  0  0  0  0  0  0  0
   21.4129   35.2785  106.4451 O   0  0  0  0  0  0  0  0  0  0  0  0
   25.1098   33.3035  104.2473 S   0  0  0  0  0  0  0  0  0  0  0  0
   20.9847   33.9414  108.2813 N   0  0  0  0  0  0  0  0  0  0  0  0
   25.7104   35.5215  103.1449 O   0  0  0  0  0  0  0  0  0  0  0  0
   21.9740   34.7467  107.6295 C   0  0  0  0  0  0  0  0  0  0  0  0
   30.4926   36.4783  104.0754 C   0  0  0  0  0  0  0  0  0  0  0  0
   23.0574   33.2368  105.9319 S   0  0  0  0  0  0  0  0  0  0  0  0
  1 12  1  0
  1 22  1  0
  1 24  1  0
  2 13  2  0
  2 17  1  0
  2 18  1  0
  3  7  2  0
  3 10  1  0
  4 15  1  0
  4 24  1  0
  5 15  1  0
  6  9  2  0
  6 26  1  0
  7 20  1  0
  8  9  1  0
  8 12  1  0
  8 16  1  0
 10 16  1  0
 10 26  2  0
 11 15  2  0
 14 22  1  0
 14 27  1  0
 16 19  1  0
 17 25  1  0
 17 27  1  0
 19 20  2  0
 21 25  1  0
 23 25  1  0
M  END
>  <ID>  (1) 
conformer_0

$$$$
