
     RDKit          3D

 31 33  0  0  0  0  0  0  0  0999 V2000
   29.5742   34.4712  102.9127 N   0  0  0  0  0  0  0  0  0  0  0  0
   24.0967   33.0473  106.1608 C   0  0  0  0  0  0  0  0  0  0  0  0
   24.1234   32.4366  103.8268 C   0  0  0  0  0  0  0  0  0  0  0  0
   30.2670   34.5626  105.3235 C   0  0  0  0  0  0  0  0  0  0  0  0
   26.4242   34.5752  105.8057 C   0  0  0  0  0  0  0  0  0  0  0  0
   32.4861   34.3245  105.9296 C   0  0  0  0  0  0  0  0  0  0  0  0
   25.8759   34.5210  107.0498 N   0  0  0  0  0  0  0  0  0  0  0  0
   28.9695   36.5787  103.4409 O   0  0  0  0  0  0  0  0  0  0  0  0
   24.6648   33.1945  104.8831 C   0  0  0  0  0  0  0  0  0  0  0  0
   25.7701   35.3965  102.6922 O   0  0  0  0  0  0  0  0  0  0  0  0
   28.6975   35.4150  103.4637 C   0  0  0  0  0  0  0  0  0  0  0  0
   22.5033   31.4816  105.3351 C   0  0  0  0  0  0  0  0  0  0  0  0
   31.9287   34.0679  103.6549 C   0  0  0  0  0  0  0  0  0  0  0  0
   26.0665   36.2412  100.3938 C   0  0  0  0  0  0  0  0  0  0  0  0
   23.0588   31.5786  104.0700 C   0  0  0  0  0  0  0  0  0  0  0  0
   24.7190   33.8026  107.2671 C   0  0  0  0  0  0  0  0  0  0  0  0
   26.6328   35.9319  101.6652 C   0  0  0  0  0  0  0  0  0  0  0  0
   24.7321   36.8640  100.5673 N   0  0  0  0  0  0  0  0  0  0  0  0
   30.1534   32.2012  102.1395 C   0  0  0  0  0  0  0  0  0  0  0  0
   25.7251   34.0435  104.7098 N   0  0  0  0  0  0  0  0  0  0  0  0
   30.5687   34.3469  104.0151 C   0  0  0  0  0  0  0  0  0  0  0  0
   24.2340   33.8004  108.4233 O   0  0  0  0  0  0  0  0  0  0  0  0
   31.2207   34.5354  106.2941 C   0  0  0  0  0  0  0  0  0  0  0  0
   26.4080   34.6068  103.5984 C   0  0  0  0  0  0  0  0  0  0  0  0
   32.8372   34.0552  104.6249 N   0  0  0  0  0  0  0  0  0  0  0  0
   23.2678   36.0956   98.8371 C   0  0  0  0  0  0  0  0  0  0  0  0
   23.6929   35.8802  100.1947 C   0  0  0  0  0  0  0  0  0  0  0  0
   27.7029   34.9379  104.2220 N   0  0  0  0  0  0  0  0  0  0  0  0
   29.0528   33.2461  102.4064 C   0  0  0  0  0  0  0  0  0  0  0  0
   23.0130   32.2166  106.3864 C   0  0  0  0  0  0  0  0  0  0  0  0
   32.2673   33.9030  102.3500 O   0  0  0  0  0  0  0  0  0  0  0  0
  1 11  1  0
  1 21  1  0
  1 29  1  0
  2  9  1  0
  2 16  1  0
  2 30  1  0
  3  9  2  0
  3 15  1  0
  4 21  2  0
  4 23  1  0
  5  7  2  0
  5 20  1  0
  6 23  2  0
  6 25  1  0
  7 16  1  0
  8 11  2  0
  9 20  1  0
 10 17  1  0
 10 24  1  0
 11 28  1  0
 12 15  1  0
 12 30  2  0
 13 21  1  0
 13 25  1  0
 13 31  2  0
 14 17  1  0
 14 18  1  0
 16 22  2  0
 18 27  1  0
 19 29  1  0
 20 24  1  0
 24 28  2  3
 26 27  1  0
M  END
>  <ID>  (1) 
conformer_0

$$$$
