
     RDKit          3D

 26 27  0  0  0  0  0  0  0  0999 V2000
   24.8478   34.8981  108.2614 O   0  0  0  0  0  0  0  0  0  0  0  0
   32.3037   33.7793  104.3042 C   0  0  0  0  0  0  0  0  0  0  0  0
   32.1105   32.4376  103.9350 N   0  0  0  0  0  0  0  0  0  0  0  0
   29.6255   36.1121  103.0899 C   0  0  0  0  0  0  0  0  0  0  0  0
   26.2596   33.4490  107.5062 O   0  0  0  0  0  0  0  0  0  0  0  0
   26.3545   36.3080  101.4935 C   0  0  0  0  0  0  0  0  0  0  0  0
   24.3917   35.1463  101.8273 C   0  0  0  0  0  0  0  0  0  0  0  0
   29.5514   34.3408  104.6762 C   0  0  0  0  0  0  0  0  0  0  0  0
   25.6540   35.4252  102.3726 C   0  0  0  0  0  0  0  0  0  0  0  0
   26.1532   34.9682  103.5962 N   0  0  0  0  0  0  0  0  0  0  0  0
   24.0557   31.9943  105.4128 C   0  0  0  0  0  0  0  0  0  0  0  0
   28.1859   34.3989  104.7722 C   0  0  0  0  0  0  0  0  0  0  0  0
   30.2734   35.0120  103.7364 C   0  0  0  0  0  0  0  0  0  0  0  0
   24.7001   32.9159  104.1841 C   0  0  0  0  0  0  0  0  0  0  0  0
   23.9660   30.5043  104.7874 C   0  0  0  0  0  0  0  0  0  0  0  0
   27.5406   35.2029  103.8971 C   0  0  0  0  0  0  0  0  0  0  0  0
   25.4793   36.6061  100.3926 C   0  0  0  0  0  0  0  0  0  0  0  0
   24.2955   35.8811  100.6692 C   0  0  0  0  0  0  0  0  0  0  0  0
   25.4389   34.2205  104.5751 C   0  0  0  0  0  0  0  0  0  0  0  0
   31.6596   34.7007  103.2552 C   0  0  0  0  0  0  0  0  0  0  0  0
   23.2267   36.0574   99.8719 F   0  0  0  0  0  0  0  0  0  0  0  0
   31.9736   34.1759  101.9564 O   0  0  0  0  0  0  0  0  0  0  0  0
   25.4864   34.3824  107.3026 C   0  0  0  0  0  0  0  0  0  0  0  0
   25.2983   34.9794  105.9127 C   0  0  0  0  0  0  0  0  0  0  0  0
   32.1486   34.1179  105.7376 C   0  0  0  0  0  0  0  0  0  0  0  0
   28.2698   36.1772  103.2129 C   0  0  0  0  0  0  0  0  0  0  0  0
  1 23  2  0
  2  3  1  0
  2 20  1  0
  2 25  1  0
  4 13  1  0
  4 26  2  0
  5 23  1  0
  6  9  1  0
  6 17  1  0
  7  9  1  0
  7 18  1  0
  8 12  2  0
  8 13  1  0
  9 10  1  0
 10 16  1  0
 10 19  1  0
 11 14  1  0
 11 15  1  0
 12 16  1  0
 13 20  1  0
 14 19  1  0
 16 26  1  0
 17 18  1  0
 18 21  1  0
 19 24  1  0
 20 22  1  0
 23 24  1  0
M  END
>  <ID>  (1) 
conformer_0

$$$$
