
     RDKit          3D

 30 33  0  0  0  0  0  0  0  0999 V2000
   32.2717   33.1809  103.9513 C   0  0  0  0  0  0  0  0  0  0  0  0
   24.6589   33.8215  107.5075 C   0  0  0  0  0  0  0  0  0  0  0  0
   26.6537   35.7837  102.8018 N   0  0  0  0  0  0  0  0  0  0  0  0
   24.1881   34.0273  106.2229 N   0  0  0  0  0  0  0  0  0  0  0  0
   28.6888   35.7650  104.0597 O   0  0  0  0  0  0  0  0  0  0  0  0
   30.9112   35.4812  104.6872 C   0  0  0  0  0  0  0  0  0  0  0  0
   26.6286   35.0690  104.9267 N   0  0  0  0  0  0  0  0  0  0  0  0
   31.5830   34.6079  105.6754 C   0  0  0  0  0  0  0  0  0  0  0  0
   29.6699   34.7245  104.1924 C   0  0  0  0  0  0  0  0  0  0  0  0
   32.3383   33.9634  101.7019 O   0  0  0  0  0  0  0  0  0  0  0  0
   30.9567   36.7071  104.0745 O   0  0  0  0  0  0  0  0  0  0  0  0
   27.4205   35.5367  103.9545 C   0  0  0  0  0  0  0  0  0  0  0  0
   21.8208   34.1655  106.4341 C   0  0  0  0  0  0  0  0  0  0  0  0
   25.8852   33.5262  107.7254 O   0  0  0  0  0  0  0  0  0  0  0  0
   24.3328   35.4114  102.1996 C   0  0  0  0  0  0  0  0  0  0  0  0
   26.9446   36.2752  101.6075 C   0  0  0  0  0  0  0  0  0  0  0  0
   22.2163   34.4711  107.9656 C   0  0  0  0  0  0  0  0  0  0  0  0
   30.0692   34.0781  102.8556 C   0  0  0  0  0  0  0  0  0  0  0  0
   23.6263   35.9374   99.9705 C   0  0  0  0  0  0  0  0  0  0  0  0
   23.6397   36.5812   98.8965 N   0  0  0  0  0  0  0  0  0  0  0  0
   25.3039   35.4324  103.1098 C   0  0  0  0  0  0  0  0  0  0  0  0
   22.9938   33.1642  105.9236 C   0  0  0  0  0  0  0  0  0  0  0  0
   25.9301   36.3775  100.7013 C   0  0  0  0  0  0  0  0  0  0  0  0
   25.3017   35.1123  104.4531 C   0  0  0  0  0  0  0  0  0  0  0  0
   24.6636   35.9227  100.9904 C   0  0  0  0  0  0  0  0  0  0  0  0
   32.7336   33.9558  105.0013 O   0  0  0  0  0  0  0  0  0  0  0  0
   23.9722   34.5261  109.7226 O   0  0  0  0  0  0  0  0  0  0  0  0
   23.5325   33.8468  108.5485 C   0  0  0  0  0  0  0  0  0  0  0  0
   31.5786   33.8657  102.8037 C   0  0  0  0  0  0  0  0  0  0  0  0
   24.1199   35.0824  105.2271 C   0  0  0  0  0  0  0  0  0  0  0  0
  1 26  1  0
  1 29  1  0
  2  4  1  0
  2 14  2  0
  2 28  1  0
  3 12  1  0
  3 16  1  0
  3 21  1  0
  4 22  1  0
  4 30  1  0
  5  9  1  0
  5 12  1  0
  6  8  1  0
  6  9  1  0
  6 11  1  0
  7 12  2  0
  7 24  1  0
  8 26  1  0
  9 18  1  0
 10 29  1  0
 13 17  1  0
 13 22  1  0
 15 21  2  0
 15 25  1  0
 16 23  2  0
 17 28  1  0
 18 29  1  0
 19 20  2  0
 19 25  1  0
 21 24  1  0
 23 25  1  0
 24 30  1  0
 27 28  1  0
M  END
>  <ID>  (1) 
conformer_0

$$$$
