
     RDKit          3D

 34 36  0  0  0  0  0  0  0  0999 V2000
   28.6486   34.2102  103.8912 C   0  0  0  0  0  0  0  0  0  0  0  0
   22.2624   33.4326  107.0408 C   0  0  0  0  0  0  0  0  0  0  0  0
   32.1272   33.9423  101.7083 O   0  0  0  0  0  0  0  0  0  0  0  0
   25.2673   34.2724  105.6121 C   0  0  0  0  0  0  0  0  0  0  0  0
   23.2435   32.8591  104.8644 C   0  0  0  0  0  0  0  0  0  0  0  0
   29.7340   35.0917  103.9201 C   0  0  0  0  0  0  0  0  0  0  0  0
   28.0194   36.8860  104.4085 C   0  0  0  0  0  0  0  0  0  0  0  0
   24.9007   35.3416  101.4276 C   0  0  0  0  0  0  0  0  0  0  0  0
   21.3441   31.3860  105.7820 C   0  0  0  0  0  0  0  0  0  0  0  0
   25.8615   34.4019  107.8270 C   0  0  0  0  0  0  0  0  0  0  0  0
   25.0719   34.6536  108.9455 O   0  0  0  0  0  0  0  0  0  0  0  0
   21.0019   30.9116  104.3117 C   0  0  0  0  0  0  0  0  0  0  0  0
   26.4377   34.9032  105.1055 C   0  0  0  0  0  0  0  0  0  0  0  0
   23.4520   34.1490  107.1730 N   0  0  0  0  0  0  0  0  0  0  0  0
   25.2368   34.9049  102.5607 C   0  0  0  0  0  0  0  0  0  0  0  0
   25.2124   36.4234  100.8391 N   0  0  0  0  0  0  0  0  0  0  0  0
   24.8502   34.0329  106.9094 C   0  0  0  0  0  0  0  0  0  0  0  0
   21.0747   33.8397  107.4630 O   0  0  0  0  0  0  0  0  0  0  0  0
   22.2799   30.1524  106.1235 C   0  0  0  0  0  0  0  0  0  0  0  0
   28.8682   32.9856  103.1201 C   0  0  0  0  0  0  0  0  0  0  0  0
   31.1435   34.8489  103.8671 C   0  0  0  0  0  0  0  0  0  0  0  0
   31.9685   35.2497  104.8718 O   0  0  0  0  0  0  0  0  0  0  0  0
   29.3443   36.4552  104.0446 C   0  0  0  0  0  0  0  0  0  0  0  0
   23.3985   36.3166   99.6880 N   0  0  0  0  0  0  0  0  0  0  0  0
   24.4225   36.8273   99.8253 C   0  0  0  0  0  0  0  0  0  0  0  0
   24.6838   34.1520  103.4093 C   0  0  0  0  0  0  0  0  0  0  0  0
   27.0786   35.8177  104.6109 C   0  0  0  0  0  0  0  0  0  0  0  0
   30.2985   32.7158  102.7961 C   0  0  0  0  0  0  0  0  0  0  0  0
   24.3367   33.7466  104.6369 C   0  0  0  0  0  0  0  0  0  0  0  0
   31.6003   33.5981  103.1026 C   0  0  0  0  0  0  0  0  0  0  0  0
   30.2696   37.3050  103.8108 O   0  0  0  0  0  0  0  0  0  0  0  0
   27.4385   34.6925  104.3751 C   0  0  0  0  0  0  0  0  0  0  0  0
   22.1012   32.6794  105.7577 C   0  0  0  0  0  0  0  0  0  0  0  0
   32.8244   33.1033  103.7504 O   0  0  0  0  0  0  0  0  0  0  0  0
  1  6  1  0
  1 20  1  0
  1 32  1  0
  2 14  1  0
  2 18  2  0
  2 33  1  0
  3 30  1  0
  4 13  1  0
  4 17  1  0
  4 29  1  0
  5 29  1  0
  5 33  1  0
  6 21  1  0
  6 23  1  0
  7 23  1  0
  7 27  1  0
  8 15  1  0
  8 16  2  3
  9 12  1  0
  9 19  1  0
  9 33  1  0
 10 11  1  0
 10 17  1  0
 13 27  1  0
 14 17  1  0
 15 26  2  0
 16 25  1  0
 20 28  1  0
 21 22  1  0
 21 30  1  0
 23 31  2  0
 24 25  2  0
 26 29  2  0
 27 32  1  0
 28 30  1  0
 30 34  1  0
M  END
>  <ID>  (1) 
conformer_0

$$$$
