
     RDKit          3D

 43 44  0  0  0  0  0  0  0  0999 V2000
   29.3961   33.9219  105.6856 O   0  0  0  0  0  0  0  0  0  0  0  0
   29.8082   36.4854  103.4153 F   0  0  0  0  0  0  0  0  0  0  0  0
   30.4224   31.0606  102.2007 C   0  0  0  0  0  0  0  0  0  0  0  0
   23.7647   34.1156  108.0590 C   0  0  0  0  0  0  0  0  0  0  0  0
   29.3499   31.7571  103.2383 C   0  0  0  0  0  0  0  0  0  0  0  0
   23.6111   33.1665  105.0773 C   0  0  0  0  0  0  0  0  0  0  0  0
   25.9700   33.4667  107.4823 O   0  0  0  0  0  0  0  0  0  0  0  0
   22.0319   31.4600  104.4066 C   0  0  0  0  0  0  0  0  0  0  0  0
   26.9000   35.0592  104.7899 C   0  0  0  0  0  0  0  0  0  0  0  0
   33.0478   32.5119  100.8887 F   0  0  0  0  0  0  0  0  0  0  0  0
   31.2891   31.8570  104.4184 C   0  0  0  0  0  0  0  0  0  0  0  0
   31.8379   30.8649  102.9241 F   0  0  0  0  0  0  0  0  0  0  0  0
   22.4374   33.2674  105.9855 C   0  0  0  0  0  0  0  0  0  0  0  0
   30.3572   32.8468  103.6983 C   0  0  0  0  0  0  0  0  0  0  0  0
   26.3952   36.0614  105.5225 O   0  0  0  0  0  0  0  0  0  0  0  0
   27.1273   36.2114  102.6617 O   0  0  0  0  0  0  0  0  0  0  0  0
   22.6601   35.7729  105.4676 O   0  0  0  0  0  0  0  0  0  0  0  0
   21.5376   35.0993  107.5838 C   0  0  0  0  0  0  0  0  0  0  0  0
   24.3926   34.7969  109.1338 O   0  0  0  0  0  0  0  0  0  0  0  0
   24.8154   33.9302  105.4583 C   0  0  0  0  0  0  0  0  0  0  0  0
   22.3038   34.0162  108.4875 C   0  0  0  0  0  0  0  0  0  0  0  0
   32.2809   34.1768  104.6079 C   0  0  0  0  0  0  0  0  0  0  0  0
   26.0321   33.8480  104.6605 C   0  0  0  0  0  0  0  0  0  0  0  0
   24.3291   35.9196  101.1040 O   0  0  0  0  0  0  0  0  0  0  0  0
   32.4457   33.3893  101.9464 C   0  0  0  0  0  0  0  0  0  0  0  0
   32.6230   32.8110  104.5776 C   0  0  0  0  0  0  0  0  0  0  0  0
   29.8284   29.8221  101.9253 O   0  0  0  0  0  0  0  0  0  0  0  0
   31.2579   33.6224  102.4816 C   0  0  0  0  0  0  0  0  0  0  0  0
   28.3562   32.6225  102.7172 C   0  0  0  0  0  0  0  0  0  0  0  0
   20.1011   34.8499  107.3324 O   0  0  0  0  0  0  0  0  0  0  0  0
   23.7378   35.7528   99.8311 C   0  0  0  0  0  0  0  0  0  0  0  0
   29.6871   33.9844  104.2912 C   0  0  0  0  0  0  0  0  0  0  0  0
   23.5050   32.0012  104.2161 C   0  0  0  0  0  0  0  0  0  0  0  0
   21.3904   32.3669  105.4576 C   0  0  0  0  0  0  0  0  0  0  0  0
   23.3860   36.7358   99.0893 O   0  0  0  0  0  0  0  0  0  0  0  0
   29.2563   35.1781  103.6366 C   0  0  0  0  0  0  0  0  0  0  0  0
   30.5696   31.7451  100.8649 C   0  0  0  0  0  0  0  0  0  0  0  0
   27.7631   35.3944  103.6396 C   0  0  0  0  0  0  0  0  0  0  0  0
   22.1195   34.7075  106.2028 C   0  0  0  0  0  0  0  0  0  0  0  0
   32.1240   35.4260  104.7448 O   0  0  0  0  0  0  0  0  0  0  0  0
   25.4679   36.8234  100.9627 C   0  0  0  0  0  0  0  0  0  0  0  0
   26.6079   36.0561  101.4769 C   0  0  0  0  0  0  0  0  0  0  0  0
   24.8286   34.1357  106.9426 C   0  0  0  0  0  0  0  0  0  0  0  0
  1 32  1  0
  2 36  1  0
  3  5  1  0
  3 12  1  0
  3 27  1  0
  3 37  1  0
  4 19  1  0
  4 21  1  0
  4 43  1  0
  5 14  1  0
  5 29  1  0
  6 13  1  0
  6 20  1  0
  6 33  1  0
  7 43  1  0
  8 33  1  0
  8 34  1  0
  9 15  1  0
  9 23  1  0
  9 38  1  0
 10 25  1  0
 11 14  1  0
 11 26  1  0
 13 34  1  0
 13 39  1  0
 14 28  1  0
 14 32  1  0
 16 38  1  0
 16 42  1  0
 17 39  1  0
 18 21  1  0
 18 30  1  0
 18 39  1  0
 20 23  1  0
 20 43  1  0
 22 26  1  0
 22 40  1  0
 24 31  1  0
 24 41  1  0
 25 28  1  0
 31 35  2  0
 32 36  1  0
 36 38  1  0
 41 42  1  0
M  END
>  <ID>  (1) 
conformer_0

$$$$
