
     RDKit          3D

 34 37  0  0  0  0  0  0  0  0999 V2000
   31.5379   33.8424  105.5950 C   0  0  0  0  0  0  0  0  0  0  0  0
   30.2648   34.6147  103.8027 C   0  0  0  0  0  0  0  0  0  0  0  0
   32.5595   33.7518  104.5844 C   0  0  0  0  0  0  0  0  0  0  0  0
   30.6409   35.8909  103.5700 C   0  0  0  0  0  0  0  0  0  0  0  0
   29.4752   36.6758  103.6627 N   0  0  0  0  0  0  0  0  0  0  0  0
   26.9160   36.2893  102.5813 N   0  0  0  0  0  0  0  0  0  0  0  0
   32.8466   33.7919  102.0536 O   0  0  0  0  0  0  0  0  0  0  0  0
   25.6921   34.3087  105.4128 C   0  0  0  0  0  0  0  0  0  0  0  0
   26.3018   34.9774  104.2720 C   0  0  0  0  0  0  0  0  0  0  0  0
   24.6850   34.0239  108.2837 O   0  0  0  0  0  0  0  0  0  0  0  0
   30.1496   34.0742  105.1670 C   0  0  0  0  0  0  0  0  0  0  0  0
   30.1588   32.6550  102.4279 O   0  0  0  0  0  0  0  0  0  0  0  0
   23.4401   35.8778   99.4139 C   0  0  0  0  0  0  0  0  0  0  0  0
   25.0728   37.3958  100.9502 N   0  0  0  0  0  0  0  0  0  0  0  0
   21.5411   32.5501  107.2538 C   0  0  0  0  0  0  0  0  0  0  0  0
   24.4322   33.6784  104.9792 C   0  0  0  0  0  0  0  0  0  0  0  0
   22.5903   34.0632  109.0470 O   0  0  0  0  0  0  0  0  0  0  0  0
   24.8632   36.1247  101.2831 C   0  0  0  0  0  0  0  0  0  0  0  0
   23.4120   32.9784  105.7078 C   0  0  0  0  0  0  0  0  0  0  0  0
   23.4277   33.7803  108.0872 C   0  0  0  0  0  0  0  0  0  0  0  0
   33.8225   34.1235  105.0280 O   0  0  0  0  0  0  0  0  0  0  0  0
   31.9057   34.6995  106.6711 O   0  0  0  0  0  0  0  0  0  0  0  0
   24.3565   33.9087  103.5649 C   0  0  0  0  0  0  0  0  0  0  0  0
   22.9424   33.1126  106.9849 N   0  0  0  0  0  0  0  0  0  0  0  0
   23.0672   37.0970   99.3217 O   0  0  0  0  0  0  0  0  0  0  0  0
   24.4652   35.1751  100.2401 C   0  0  0  0  0  0  0  0  0  0  0  0
   32.2729   33.4295  103.2754 C   0  0  0  0  0  0  0  0  0  0  0  0
   25.3883   34.7851  103.1846 C   0  0  0  0  0  0  0  0  0  0  0  0
   25.7659   35.5992  102.2023 C   0  0  0  0  0  0  0  0  0  0  0  0
   22.8384   32.0306  104.9700 O   0  0  0  0  0  0  0  0  0  0  0  0
   27.2545   35.8475  103.8172 C   0  0  0  0  0  0  0  0  0  0  0  0
   28.5816   35.9177  104.2553 C   0  0  0  0  0  0  0  0  0  0  0  0
   29.1869   34.6847  104.6078 N   0  0  0  0  0  0  0  0  0  0  0  0
   30.7918   33.5735  103.0465 C   0  0  0  0  0  0  0  0  0  0  0  0
  1  3  1  0
  1 11  1  0
  1 22  1  0
  2  4  1  0
  2 33  1  0
  2 34  1  0
  3 21  1  0
  3 27  1  0
  4  5  1  0
  5 32  2  0
  6 29  1  0
  6 31  1  0
  7 27  1  0
  8  9  1  0
  8 16  1  0
  9 28  2  0
  9 31  1  0
 10 20  2  0
 11 33  1  0
 12 34  2  0
 13 25  2  0
 13 26  1  0
 14 18  2  0
 15 24  1  0
 16 19  1  0
 16 23  1  0
 17 20  1  0
 18 26  1  0
 18 29  1  0
 19 24  1  0
 19 30  2  0
 20 24  1  0
 23 28  1  0
 27 34  1  0
 28 29  1  0
 31 32  1  0
 32 33  1  0
M  END
>  <ID>  (1) 
conformer_0

$$$$
