
     RDKit          3D

 35 38  0  0  0  0  0  0  0  0999 V2000
   22.0055   33.6705  108.4981 C   0  0  0  0  0  0  0  0  0  0  0  0
   26.0235   36.3087  102.1418 O   0  0  0  0  0  0  0  0  0  0  0  0
   18.9776   31.6630  107.8880 C   0  0  0  0  0  0  0  0  0  0  0  0
   32.0329   34.0907  101.8053 O   0  0  0  0  0  0  0  0  0  0  0  0
   29.6827   37.2082  103.6829 O   0  0  0  0  0  0  0  0  0  0  0  0
   25.2062   36.5948  100.9708 C   0  0  0  0  0  0  0  0  0  0  0  0
   29.7210   35.0508  103.8286 N   0  0  0  0  0  0  0  0  0  0  0  0
   29.4480   34.0153  104.6917 C   0  0  0  0  0  0  0  0  0  0  0  0
   22.3384   32.5031  106.5170 C   0  0  0  0  0  0  0  0  0  0  0  0
   22.8329   33.3977  107.4158 C   0  0  0  0  0  0  0  0  0  0  0  0
   31.7541   33.7235  104.2208 C   0  0  0  0  0  0  0  0  0  0  0  0
   27.1759   34.9967  104.6302 C   0  0  0  0  0  0  0  0  0  0  0  0
   32.7254   34.1035  104.9249 O   0  0  0  0  0  0  0  0  0  0  0  0
   21.0853   31.9039  106.6725 C   0  0  0  0  0  0  0  0  0  0  0  0
   30.4203   32.5462  102.6842 F   0  0  0  0  0  0  0  0  0  0  0  0
   29.0538   36.1775  103.8456 C   0  0  0  0  0  0  0  0  0  0  0  0
   33.3512   33.8169  101.8287 O   0  0  0  0  0  0  0  0  0  0  0  0
   27.7616   36.1580  104.0724 N   0  0  0  0  0  0  0  0  0  0  0  0
   20.7689   33.0971  108.6734 C   0  0  0  0  0  0  0  0  0  0  0  0
   24.1126   35.4964  101.0228 C   0  0  0  0  0  0  0  0  0  0  0  0
   23.4209   34.3724  103.6927 C   0  0  0  0  0  0  0  0  0  0  0  0
   25.7967   34.8799  104.1544 C   0  0  0  0  0  0  0  0  0  0  0  0
   20.2906   32.2045  107.7368 C   0  0  0  0  0  0  0  0  0  0  0  0
   26.2881   34.4448  106.5076 C   0  0  0  0  0  0  0  0  0  0  0  0
   23.3276   35.8083   99.8641 C   0  0  0  0  0  0  0  0  0  0  0  0
   30.5021   33.2254  105.1350 O   0  0  0  0  0  0  0  0  0  0  0  0
   24.9707   34.1902  106.2193 N   0  0  0  0  0  0  0  0  0  0  0  0
   31.2950   33.6225  102.9209 C   0  0  0  0  0  0  0  0  0  0  0  0
   24.6174   34.3386  104.8119 C   0  0  0  0  0  0  0  0  0  0  0  0
   26.8741   33.6002  107.4149 O   0  0  0  0  0  0  0  0  0  0  0  0
   25.4032   35.3140  102.8848 C   0  0  0  0  0  0  0  0  0  0  0  0
   23.9620   34.9861  102.3894 C   0  0  0  0  0  0  0  0  0  0  0  0
   28.1700   34.1327  105.1703 O   0  0  0  0  0  0  0  0  0  0  0  0
   24.5862   34.5142  108.4781 O   0  0  0  0  0  0  0  0  0  0  0  0
   24.1527   34.0275  107.3051 C   0  0  0  0  0  0  0  0  0  0  0  0
  1 10  2  0
  1 19  1  0
  2  6  1  0
  2 31  1  0
  3 23  1  0
  4 17  1  0
  4 28  1  0
  5 16  2  0
  6 20  1  0
  7  8  1  0
  7 16  1  0
  8 26  1  0
  8 33  1  0
  9 10  1  0
  9 14  2  0
 10 35  1  0
 11 13  2  0
 11 26  1  0
 11 28  1  0
 12 18  1  0
 12 22  1  0
 12 33  1  0
 14 23  1  0
 15 28  1  0
 16 18  1  0
 19 23  2  0
 20 25  1  0
 20 32  1  0
 21 29  1  0
 21 32  1  0
 22 29  2  0
 22 31  1  0
 24 27  1  0
 24 30  1  0
 27 29  1  0
 27 35  1  0
 31 32  1  0
 34 35  2  0
M  END
>  <ID>  (1) 
conformer_0

$$$$
