
     RDKit          3D

 35 38  0  0  0  0  0  0  0  0999 V2000
   24.8997   35.7507   98.9836 N   0  0  0  0  0  0  0  0  0  0  0  0
   31.9727   36.1376  105.7492 O   0  0  0  0  0  0  0  0  0  0  0  0
   24.2619   36.1171  101.2632 N   0  0  0  0  0  0  0  0  0  0  0  0
   26.5923   35.6189  100.7231 C   0  0  0  0  0  0  0  0  0  0  0  0
   25.5457   35.1798  104.1347 C   0  0  0  0  0  0  0  0  0  0  0  0
   27.9534   35.6388  104.1385 C   0  0  0  0  0  0  0  0  0  0  0  0
   22.2227   32.3607  106.6930 C   0  0  0  0  0  0  0  0  0  0  0  0
   30.1062   34.6458  103.7595 C   0  0  0  0  0  0  0  0  0  0  0  0
   26.1755   35.5222   99.3817 C   0  0  0  0  0  0  0  0  0  0  0  0
   29.9472   36.9531  103.9032 O   0  0  0  0  0  0  0  0  0  0  0  0
   24.7219   34.7585  105.3110 C   0  0  0  0  0  0  0  0  0  0  0  0
   23.5877   33.9501  107.9294 C   0  0  0  0  0  0  0  0  0  0  0  0
   21.9185   31.6256  105.5671 C   0  0  0  0  0  0  0  0  0  0  0  0
   29.3851   33.6202  103.1324 C   0  0  0  0  0  0  0  0  0  0  0  0
   22.6719   31.7618  104.3900 C   0  0  0  0  0  0  0  0  0  0  0  0
   25.2387   35.2971  106.4118 N   0  0  0  0  0  0  0  0  0  0  0  0
   24.8059   33.8636  108.5639 O   0  0  0  0  0  0  0  0  0  0  0  0
   30.0570   32.7454  102.3303 C   0  0  0  0  0  0  0  0  0  0  0  0
   28.0230   33.2122  103.4662 C   0  0  0  0  0  0  0  0  0  0  0  0
   33.4778   34.4792  105.4521 F   0  0  0  0  0  0  0  0  0  0  0  0
   32.3000   35.0158  105.1344 C   0  0  0  0  0  0  0  0  0  0  0  0
   23.8910   33.5353  105.4052 C   0  0  0  0  0  0  0  0  0  0  0  0
   29.3552   35.8549  104.0916 C   0  0  0  0  0  0  0  0  0  0  0  0
   26.9575   35.1440  104.7707 C   0  0  0  0  0  0  0  0  0  0  0  0
   23.2819   33.2645  106.6523 C   0  0  0  0  0  0  0  0  0  0  0  0
   25.5515   35.8659  101.6458 C   0  0  0  0  0  0  0  0  0  0  0  0
   31.3717   32.6862  102.3909 N   0  0  0  0  0  0  0  0  0  0  0  0
   22.7604   36.4127   99.4700 O   0  0  0  0  0  0  0  0  0  0  0  0
   23.6576   32.7156  104.3476 C   0  0  0  0  0  0  0  0  0  0  0  0
   23.9490   36.0858   99.9184 C   0  0  0  0  0  0  0  0  0  0  0  0
   27.5806   34.3053  104.0997 N   0  0  0  0  0  0  0  0  0  0  0  0
   32.0810   33.5273  103.2386 C   0  0  0  0  0  0  0  0  0  0  0  0
   25.7635   35.8198  102.9794 N   0  0  0  0  0  0  0  0  0  0  0  0
   31.4965   34.4435  104.0718 C   0  0  0  0  0  0  0  0  0  0  0  0
   27.0258   35.2532   98.4272 O   0  0  0  0  0  0  0  0  0  0  0  0
  1  9  1  0
  1 30  1  0
  2 21  1  0
  3 26  2  0
  3 30  1  0
  4  9  1  0
  4 26  1  0
  5 11  1  0
  5 24  1  0
  5 33  1  0
  6 23  1  0
  6 24  1  0
  7 13  2  0
  7 25  1  0
  8 14  1  0
  8 23  1  0
  8 34  1  0
  9 35  2  0
 10 23  2  0
 11 16  2  0
 11 22  1  0
 12 17  1  0
 12 25  1  0
 13 15  1  0
 14 18  1  0
 14 19  1  0
 15 29  2  0
 18 27  2  0
 19 31  1  0
 20 21  1  0
 21 34  1  0
 22 25  2  0
 22 29  1  0
 24 31  1  0
 26 33  1  0
 27 32  1  0
 28 30  2  0
 32 34  2  0
M  END
>  <ID>  (1) 
conformer_0

$$$$
