
     RDKit          3D

 34 36  0  0  0  0  0  0  0  0999 V2000
   31.4358   33.6160  103.8508 C   0  0  0  0  0  0  0  0  0  0  0  0
   24.7433   34.3365  108.6127 O   0  0  0  0  0  0  0  0  0  0  0  0
   24.1842   33.5001  107.4914 C   0  0  0  0  0  0  0  0  0  0  0  0
   29.7613   33.1884  105.7870 O   0  0  0  0  0  0  0  0  0  0  0  0
   24.7435   33.6800  104.6419 C   0  0  0  0  0  0  0  0  0  0  0  0
   26.0432   34.5779  106.3649 C   0  0  0  0  0  0  0  0  0  0  0  0
   26.4450   35.9382  102.0891 C   0  0  0  0  0  0  0  0  0  0  0  0
   25.8038   35.8310  106.6029 O   0  0  0  0  0  0  0  0  0  0  0  0
   32.1260   33.4003  101.4449 O   0  0  0  0  0  0  0  0  0  0  0  0
   23.6833   36.6293   99.9142 O   0  0  0  0  0  0  0  0  0  0  0  0
   22.8874   31.9467  104.4321 C   0  0  0  0  0  0  0  0  0  0  0  0
   23.7277   32.9952  103.9241 C   0  0  0  0  0  0  0  0  0  0  0  0
   24.9005   33.6357  106.1284 C   0  0  0  0  0  0  0  0  0  0  0  0
   32.2302   35.5665  104.9961 O   0  0  0  0  0  0  0  0  0  0  0  0
   27.3112   34.2362  105.6679 N   0  0  0  0  0  0  0  0  0  0  0  0
   30.2238   35.9803  103.7938 C   0  0  0  0  0  0  0  0  0  0  0  0
   24.5114   36.1634  100.8861 C   0  0  0  0  0  0  0  0  0  0  0  0
   30.4992   31.7650  100.7334 C   0  0  0  0  0  0  0  0  0  0  0  0
   31.4051   35.0103  103.9834 C   0  0  0  0  0  0  0  0  0  0  0  0
   29.2586   32.8325  103.4346 O   0  0  0  0  0  0  0  0  0  0  0  0
   24.2681   35.2392  101.9610 C   0  0  0  0  0  0  0  0  0  0  0  0
   28.2706   34.6426  104.6921 C   0  0  0  0  0  0  0  0  0  0  0  0
   27.0673   34.3455  104.4074 C   0  0  0  0  0  0  0  0  0  0  0  0
   28.8954   35.8642  104.2731 C   0  0  0  0  0  0  0  0  0  0  0  0
   25.7324   34.4303  103.8988 C   0  0  0  0  0  0  0  0  0  0  0  0
   22.9779   30.8575  103.8282 O   0  0  0  0  0  0  0  0  0  0  0  0
   30.6137   32.5945  103.0856 C   0  0  0  0  0  0  0  0  0  0  0  0
   29.1758   33.4774  104.6885 C   0  0  0  0  0  0  0  0  0  0  0  0
   30.6624   37.2665  103.8150 O   0  0  0  0  0  0  0  0  0  0  0  0
   32.5653   33.0436  104.2580 F   0  0  0  0  0  0  0  0  0  0  0  0
   31.2386   32.5269  101.6701 C   0  0  0  0  0  0  0  0  0  0  0  0
   25.4069   35.1147  102.7007 C   0  0  0  0  0  0  0  0  0  0  0  0
   22.0928   32.2108  105.3859 O   0  0  0  0  0  0  0  0  0  0  0  0
   25.9014   36.5993  101.0064 C   0  0  0  0  0  0  0  0  0  0  0  0
  1 19  1  0
  1 27  1  0
  1 30  1  0
  2  3  1  0
  3 13  1  0
  4 28  2  0
  5 12  2  3
  5 13  1  0
  5 25  1  0
  6  8  2  0
  6 13  1  0
  6 15  1  0
  7 32  1  0
  7 34  1  0
  9 31  2  0
 10 17  1  0
 11 12  1  0
 11 26  2  0
 11 33  1  0
 14 19  1  0
 15 23  1  0
 16 19  1  0
 16 24  1  0
 16 29  1  0
 17 21  1  0
 17 34  1  0
 18 31  1  0
 20 27  1  0
 20 28  1  0
 21 32  1  0
 22 23  1  0
 22 24  1  0
 22 28  1  0
 23 25  1  0
 25 32  2  3
 27 31  1  0
M  END
>  <ID>  (1) 
conformer_0

$$$$
