
     RDKit          3D

 28 31  0  0  0  0  0  0  0  0999 V2000
   30.6531   35.5023  103.9390 C   0  0  0  0  0  0  0  0  0  0  0  0
   23.3266   33.2994  104.8377 C   0  0  0  0  0  0  0  0  0  0  0  0
   24.2936   34.8849  102.2781 C   0  0  0  0  0  0  0  0  0  0  0  0
   26.1101   34.8950  103.8369 C   0  0  0  0  0  0  0  0  0  0  0  0
   26.3438   36.1708  101.8020 C   0  0  0  0  0  0  0  0  0  0  0  0
   24.2011   33.7656  106.8890 C   0  0  0  0  0  0  0  0  0  0  0  0
   29.4130   34.8925  103.8038 C   0  0  0  0  0  0  0  0  0  0  0  0
   28.3846   35.6788  104.2298 N   0  0  0  0  0  0  0  0  0  0  0  0
   25.7708   36.6077  100.6660 C   0  0  0  0  0  0  0  0  0  0  0  0
   22.8683   33.4240  107.1052 C   0  0  0  0  0  0  0  0  0  0  0  0
   23.9163   36.5582   99.2037 N   0  0  0  0  0  0  0  0  0  0  0  0
   30.3500   32.9699  102.7635 C   0  0  0  0  0  0  0  0  0  0  0  0
   31.5673   33.6265  102.8378 C   0  0  0  0  0  0  0  0  0  0  0  0
   29.2590   33.6120  103.2665 C   0  0  0  0  0  0  0  0  0  0  0  0
   25.6604   34.0450  104.8801 C   0  0  0  0  0  0  0  0  0  0  0  0
   31.7528   34.8140  103.5435 C   0  0  0  0  0  0  0  0  0  0  0  0
   24.4715   36.1834  100.3075 C   0  0  0  0  0  0  0  0  0  0  0  0
   30.7449   36.7623  104.4183 F   0  0  0  0  0  0  0  0  0  0  0  0
   24.5084   33.7327  105.4752 C   0  0  0  0  0  0  0  0  0  0  0  0
   27.0639   34.0996  105.4844 N   0  0  0  0  0  0  0  0  0  0  0  0
   22.3204   33.0845  105.8251 C   0  0  0  0  0  0  0  0  0  0  0  0
   24.7168   34.7940  108.9158 O   0  0  0  0  0  0  0  0  0  0  0  0
   32.6273   33.1762  102.1595 O   0  0  0  0  0  0  0  0  0  0  0  0
   25.5893   35.3249  102.6410 C   0  0  0  0  0  0  0  0  0  0  0  0
   23.6949   35.2892  101.1562 C   0  0  0  0  0  0  0  0  0  0  0  0
   26.2863   33.5109  107.9426 O   0  0  0  0  0  0  0  0  0  0  0  0
   27.2722   35.0395  104.4521 C   0  0  0  0  0  0  0  0  0  0  0  0
   25.1319   34.0459  107.9698 C   0  0  0  0  0  0  0  0  0  0  0  0
  1  7  2  0
  1 16  1  0
  1 18  1  0
  2 19  1  0
  2 21  1  0
  3 24  1  0
  3 25  2  0
  4 15  1  0
  4 24  1  0
  4 27  2  0
  5  9  2  0
  5 24  1  0
  6 10  1  0
  6 19  2  0
  6 28  1  0
  7  8  1  0
  7 14  1  0
  8 27  1  0
  9 17  1  0
 10 21  1  0
 11 17  2  0
 12 13  1  0
 12 14  2  0
 13 16  2  0
 13 23  1  0
 15 19  1  0
 15 20  1  0
 17 25  1  0
 20 27  1  0
 22 28  2  0
 26 28  1  0
M  END
>  <ID>  (1) 
conformer_0

$$$$
