
     RDKit          3D

 33 35  0  0  0  0  0  0  0  0999 V2000
   23.4022   34.2576  107.7776 C   0  0  0  0  0  0  0  0  0  0  0  0
   30.2747   35.6013  104.1414 C   0  0  0  0  0  0  0  0  0  0  0  0
   30.2773   33.2392  103.0659 C   0  0  0  0  0  0  0  0  0  0  0  0
   23.7544   34.4658  110.1378 O   0  0  0  0  0  0  0  0  0  0  0  0
   24.8562   36.8212  100.9367 C   0  0  0  0  0  0  0  0  0  0  0  0
   23.1556   36.7006   99.2775 O   0  0  0  0  0  0  0  0  0  0  0  0
   28.8068   33.8025  103.3742 C   0  0  0  0  0  0  0  0  0  0  0  0
   28.9243   35.2137  103.7865 C   0  0  0  0  0  0  0  0  0  0  0  0
   25.1614   35.7953  101.9274 C   0  0  0  0  0  0  0  0  0  0  0  0
   26.6945   35.4672  103.8567 C   0  0  0  0  0  0  0  0  0  0  0  0
   25.0856   34.4271  105.9061 N   0  0  0  0  0  0  0  0  0  0  0  0
   30.5742   36.7533  103.7100 O   0  0  0  0  0  0  0  0  0  0  0  0
   32.5054   34.0434  104.0599 N   0  0  0  0  0  0  0  0  0  0  0  0
   25.7894   34.4372  108.0301 O   0  0  0  0  0  0  0  0  0  0  0  0
   24.1809   34.7316  103.7679 C   0  0  0  0  0  0  0  0  0  0  0  0
   26.3953   35.7254  102.5624 C   0  0  0  0  0  0  0  0  0  0  0  0
   26.3203   34.6430  105.1601 C   0  0  0  0  0  0  0  0  0  0  0  0
   26.5168   35.4972   99.4256 C   0  0  0  0  0  0  0  0  0  0  0  0
   22.9190   34.2957  109.1804 C   0  0  0  0  0  0  0  0  0  0  0  0
   24.7862   34.2653  107.2699 C   0  0  0  0  0  0  0  0  0  0  0  0
   32.2814   33.7788  101.7676 O   0  0  0  0  0  0  0  0  0  0  0  0
   31.6946   33.7957  102.9694 C   0  0  0  0  0  0  0  0  0  0  0  0
   28.0197   36.1250  104.2812 O   0  0  0  0  0  0  0  0  0  0  0  0
   24.1236   35.0800  102.5603 C   0  0  0  0  0  0  0  0  0  0  0  0
   23.9358   34.4100  105.0389 C   0  0  0  0  0  0  0  0  0  0  0  0
   21.6531   34.0244  109.3252 O   0  0  0  0  0  0  0  0  0  0  0  0
   22.6202   34.7182  105.5436 C   0  0  0  0  0  0  0  0  0  0  0  0
   31.9565   34.1812  105.3545 C   0  0  0  0  0  0  0  0  0  0  0  0
   25.0730   35.1819   99.2893 O   0  0  0  0  0  0  0  0  0  0  0  0
   27.1901   34.8590   98.2379 C   0  0  0  0  0  0  0  0  0  0  0  0
   24.2300   36.1955   99.7525 C   0  0  0  0  0  0  0  0  0  0  0  0
   22.3682   34.1868  106.8413 O   0  0  0  0  0  0  0  0  0  0  0  0
   30.6515   34.8539  105.3074 C   0  0  0  0  0  0  0  0  0  0  0  0
  1 19  1  0
  1 20  1  0
  1 32  1  0
  2  8  1  0
  2 12  2  0
  2 33  1  0
  3  7  1  0
  3 22  1  0
  4 19  2  0
  5  9  1  0
  5 31  1  0
  6 31  2  0
  7  8  1  0
  8 23  1  0
  9 16  1  0
  9 24  1  0
 10 16  1  0
 10 17  1  0
 10 23  1  0
 11 17  1  0
 11 20  1  0
 11 25  1  0
 13 22  1  0
 13 28  1  0
 14 20  2  0
 15 24  2  0
 15 25  2  0
 18 29  1  0
 18 30  1  0
 19 26  1  0
 21 22  2  0
 25 27  1  0
 27 32  1  0
 28 33  1  0
 29 31  1  0
M  END
>  <ID>  (1) 
conformer_0

$$$$
