
     RDKit          3D

 23 24  0  0  0  0  0  0  0  0999 V2000
   25.4047   35.2444  103.8376 C   0  0  0  0  0  0  0  0  0  0  0  0
   29.0799   34.4150  104.0892 C   0  0  0  0  0  0  0  0  0  0  0  0
   25.5118   35.4744  100.2078 C   0  0  0  0  0  0  0  0  0  0  0  0
   29.9319   34.8870  105.0830 C   0  0  0  0  0  0  0  0  0  0  0  0
   24.4549   36.5436  100.0808 C   0  0  0  0  0  0  0  0  0  0  0  0
   25.0861   34.7389  108.1431 O   0  0  0  0  0  0  0  0  0  0  0  0
   26.7489   33.2625  107.8735 O   0  0  0  0  0  0  0  0  0  0  0  0
   24.6450   37.6265  100.6338 O   0  0  0  0  0  0  0  0  0  0  0  0
   23.7068   34.9363  105.4300 N   0  0  0  0  0  0  0  0  0  0  0  0
   27.3474   34.3924  105.5605 C   0  0  0  0  0  0  0  0  0  0  0  0
   31.2480   34.6613  105.0786 C   0  0  0  0  0  0  0  0  0  0  0  0
   26.0751   34.4788  106.0277 C   0  0  0  0  0  0  0  0  0  0  0  0
   27.6906   34.6803  104.2575 N   0  0  0  0  0  0  0  0  0  0  0  0
   31.8397   33.9140  104.1105 C   0  0  0  0  0  0  0  0  0  0  0  0
   25.0596   34.8949  105.0696 C   0  0  0  0  0  0  0  0  0  0  0  0
   31.0011   33.4605  103.0330 C   0  0  0  0  0  0  0  0  0  0  0  0
   25.9145   34.1205  107.4740 C   0  0  0  0  0  0  0  0  0  0  0  0
   26.6848   35.2030  103.3893 C   0  0  0  0  0  0  0  0  0  0  0  0
   23.4664   36.1607   99.2592 N   0  0  0  0  0  0  0  0  0  0  0  0
   27.0141   35.6695  102.0631 C   0  0  0  0  0  0  0  0  0  0  0  0
   29.6453   33.6997  103.0583 C   0  0  0  0  0  0  0  0  0  0  0  0
   33.1937   33.6073  104.1766 F   0  0  0  0  0  0  0  0  0  0  0  0
   26.5644   36.0163  100.9380 C   0  0  0  0  0  0  0  0  0  0  0  0
  1 15  2  0
  1 18  1  0
  2  4  2  0
  2 13  1  0
  2 21  1  0
  3  5  1  0
  3 23  1  0
  4 11  1  0
  5  8  2  0
  5 19  1  0
  6 17  2  0
  7 17  1  0
  9 15  1  0
 10 12  2  0
 10 13  1  0
 11 14  2  0
 12 15  1  0
 12 17  1  0
 13 18  1  0
 14 16  1  0
 14 22  1  0
 16 21  2  0
 18 20  2  3
 20 23  1  0
M  END
>  <ID>  (1) 
conformer_0

$$$$
