
     RDKit          3D

 29 31  0  0  0  0  0  0  0  0999 V2000
   32.4850   33.7784  101.7711 O   0  0  0  0  0  0  0  0  0  0  0  0
   24.2601   33.5558  104.1651 O   0  0  0  0  0  0  0  0  0  0  0  0
   26.7155   34.5946  105.0800 C   0  0  0  0  0  0  0  0  0  0  0  0
   27.5878   35.4952  104.1421 C   0  0  0  0  0  0  0  0  0  0  0  0
   32.0505   33.4972  103.0104 C   0  0  0  0  0  0  0  0  0  0  0  0
   24.6619   34.0742  107.8657 C   0  0  0  0  0  0  0  0  0  0  0  0
   32.0973   34.3803  105.2190 C   0  0  0  0  0  0  0  0  0  0  0  0
   23.6751   36.0568  100.0209 C   0  0  0  0  0  0  0  0  0  0  0  0
   25.9705   36.5425  100.7509 N   0  0  0  0  0  0  0  0  0  0  0  0
   30.6401   34.4937  105.2991 C   0  0  0  0  0  0  0  0  0  0  0  0
   25.4664   35.1681  103.0043 C   0  0  0  0  0  0  0  0  0  0  0  0
   29.4061   37.2500  103.5809 O   0  0  0  0  0  0  0  0  0  0  0  0
   25.3017   34.4797  104.3517 C   0  0  0  0  0  0  0  0  0  0  0  0
   26.7023   35.7727  102.8914 C   0  0  0  0  0  0  0  0  0  0  0  0
   28.3263   33.3514  103.1977 O   0  0  0  0  0  0  0  0  0  0  0  0
   30.6565   33.6025  103.1584 C   0  0  0  0  0  0  0  0  0  0  0  0
   28.7072   34.6133  103.6987 C   0  0  0  0  0  0  0  0  0  0  0  0
   25.4069   34.9268  105.7263 C   0  0  0  0  0  0  0  0  0  0  0  0
   23.5646   34.3411  108.7648 C   0  0  0  0  0  0  0  0  0  0  0  0
   29.5835   32.8956  102.5178 C   0  0  0  0  0  0  0  0  0  0  0  0
   24.7359   35.9749  100.9582 C   0  0  0  0  0  0  0  0  0  0  0  0
   26.9190   36.4399  101.7338 C   0  0  0  0  0  0  0  0  0  0  0  0
   32.7735   33.7132  104.1321 C   0  0  0  0  0  0  0  0  0  0  0  0
   30.0273   36.1976  103.9010 C   0  0  0  0  0  0  0  0  0  0  0  0
   24.4577   34.1060  106.5102 N   0  0  0  0  0  0  0  0  0  0  0  0
   24.5294   35.2228  102.0931 N   0  0  0  0  0  0  0  0  0  0  0  0
   23.6035   36.5149   98.9329 N   0  0  0  0  0  0  0  0  0  0  0  0
   30.0973   34.7324  103.9294 N   0  0  0  0  0  0  0  0  0  0  0  0
   25.8172   33.8557  108.1257 O   0  0  0  0  0  0  0  0  0  0  0  0
  1  5  1  0
  2 13  1  0
  3  4  1  0
  3 18  1  0
  4 14  1  0
  4 17  1  0
  5 16  1  0
  5 23  1  0
  6 19  1  0
  6 25  1  0
  6 29  2  0
  7 10  1  0
  7 23  1  0
  8 21  1  0
  8 27  2  0
  9 21  1  0
  9 22  2  0
 11 13  1  0
 11 14  1  0
 11 26  2  0
 12 24  2  0
 13 18  1  0
 14 22  1  0
 15 17  1  0
 15 20  1  0
 16 20  1  0
 16 28  1  0
 17 28  1  0
 18 25  1  0
 21 26  1  0
 24 28  1  0
M  END
>  <ID>  (1) 
conformer_0

$$$$
