
     RDKit          3D

 36 39  0  0  0  0  0  0  0  0999 V2000
   24.4879   36.8573  100.0752 N   0  0  0  0  0  0  0  0  0  0  0  0
   25.6038   34.4011  106.2290 C   0  0  0  0  0  0  0  0  0  0  0  0
   32.5090   33.6369  101.9861 F   0  0  0  0  0  0  0  0  0  0  0  0
   31.6036   33.8012  103.0772 C   0  0  0  0  0  0  0  0  0  0  0  0
   24.0303   34.0355  104.7349 N   0  0  0  0  0  0  0  0  0  0  0  0
   23.4667   33.9249  105.9448 C   0  0  0  0  0  0  0  0  0  0  0  0
   24.3496   34.0609  108.2302 C   0  0  0  0  0  0  0  0  0  0  0  0
   30.3389   35.7064  103.8499 C   0  0  0  0  0  0  0  0  0  0  0  0
   19.8382   33.1593  105.9660 C   0  0  0  0  0  0  0  0  0  0  0  0
   21.6205   34.4732  107.5299 C   0  0  0  0  0  0  0  0  0  0  0  0
   27.3534   36.6501  105.4945 C   0  0  0  0  0  0  0  0  0  0  0  0
   29.8563   36.8167  103.6303 O   0  0  0  0  0  0  0  0  0  0  0  0
   19.3738   33.9043  107.0238 C   0  0  0  0  0  0  0  0  0  0  0  0
   24.2294   34.7256  101.8182 C   0  0  0  0  0  0  0  0  0  0  0  0
   24.4906   34.1222  106.8636 N   0  0  0  0  0  0  0  0  0  0  0  0
   27.4451   35.5164  104.7131 C   0  0  0  0  0  0  0  0  0  0  0  0
   29.6215   34.7103  104.6078 C   0  0  0  0  0  0  0  0  0  0  0  0
   21.1680   33.1440  105.6210 C   0  0  0  0  0  0  0  0  0  0  0  0
   32.2528   33.3640  104.4100 C   0  0  0  0  0  0  0  0  0  0  0  0
   31.4183   35.2455  103.1250 N   0  0  0  0  0  0  0  0  0  0  0  0
   33.6362   33.5844  104.4212 O   0  0  0  0  0  0  0  0  0  0  0  0
   22.0862   33.8254  106.4042 C   0  0  0  0  0  0  0  0  0  0  0  0
   23.2263   34.9130  100.8978 C   0  0  0  0  0  0  0  0  0  0  0  0
   20.2929   34.6099  107.8033 C   0  0  0  0  0  0  0  0  0  0  0  0
   26.2414   35.0614  104.0489 C   0  0  0  0  0  0  0  0  0  0  0  0
   26.4457   35.2348  102.6573 C   0  0  0  0  0  0  0  0  0  0  0  0
   28.0309   33.4108  103.4631 C   0  0  0  0  0  0  0  0  0  0  0  0
   28.2837   34.5579  104.2756 N   0  0  0  0  0  0  0  0  0  0  0  0
   31.5925   33.9401  105.6036 C   0  0  0  0  0  0  0  0  0  0  0  0
   30.5264   32.8618  102.7055 C   0  0  0  0  0  0  0  0  0  0  0  0
   24.1737   34.3455  109.3398 N   0  0  0  0  0  0  0  0  0  0  0  0
   30.1117   33.7540  105.5444 C   0  0  0  0  0  0  0  0  0  0  0  0
   25.3389   35.5678  101.8669 C   0  0  0  0  0  0  0  0  0  0  0  0
   25.4351   36.7103  101.0589 C   0  0  0  0  0  0  0  0  0  0  0  0
   25.3059   34.4627  104.9406 C   0  0  0  0  0  0  0  0  0  0  0  0
   23.4528   35.9476   99.9154 C   0  0  0  0  0  0  0  0  0  0  0  0
  1 34  2  0
  1 36  1  0
  2 15  1  0
  2 35  1  0
  3  4  1  0
  4 19  1  0
  4 20  1  0
  4 30  1  0
  5  6  2  0
  5 35  1  0
  6 15  1  0
  6 22  1  0
  7 15  1  0
  7 31  3  0
  8 12  2  0
  8 17  1  0
  8 20  1  0
  9 13  1  0
  9 18  2  0
 10 22  1  0
 10 24  2  0
 11 16  1  0
 13 24  1  0
 14 23  2  0
 14 33  1  0
 16 25  1  0
 16 28  1  0
 17 28  1  0
 17 32  1  0
 18 22  1  0
 19 21  1  0
 19 29  1  0
 23 36  1  0
 25 26  1  0
 25 35  1  0
 26 33  1  0
 27 28  1  0
 29 32  1  0
 33 34  1  0
M  END
>  <ID>  (1) 
conformer_0

$$$$
