
     RDKit          3D

 21 21  0  0  0  0  0  0  0  0999 V2000
   26.8773   33.2392  107.7046 O   0  0  0  0  0  0  0  0  0  0  0  0
   27.6864   35.6451  103.9625 C   0  0  0  0  0  0  0  0  0  0  0  0
   25.7516   35.4048  102.3513 C   0  0  0  0  0  0  0  0  0  0  0  0
   28.9950   34.9896  104.0479 C   0  0  0  0  0  0  0  0  0  0  0  0
   25.1905   37.4466  101.2202 O   0  0  0  0  0  0  0  0  0  0  0  0
   27.2261   35.2063  106.4988 C   0  0  0  0  0  0  0  0  0  0  0  0
   26.2716   34.2650  107.3239 C   0  0  0  0  0  0  0  0  0  0  0  0
   24.7140   35.5113  100.0982 C   0  0  0  0  0  0  0  0  0  0  0  0
   26.5467   35.1490  104.9593 C   0  0  0  0  0  0  0  0  0  0  0  0
   30.4036   36.8849  103.6304 O   0  0  0  0  0  0  0  0  0  0  0  0
   29.3099   34.0800  105.1891 C   0  0  0  0  0  0  0  0  0  0  0  0
   23.8840   36.3354   99.3189 N   0  0  0  0  0  0  0  0  0  0  0  0
   32.3662   33.7972  102.0260 O   0  0  0  0  0  0  0  0  0  0  0  0
   30.7343   34.1617  105.3746 O   0  0  0  0  0  0  0  0  0  0  0  0
   25.1499   36.2276  101.2690 C   0  0  0  0  0  0  0  0  0  0  0  0
   25.1757   34.6856  107.6388 O   0  0  0  0  0  0  0  0  0  0  0  0
   30.2265   35.5190  103.4584 C   0  0  0  0  0  0  0  0  0  0  0  0
   31.3764   34.6786  104.0760 C   0  0  0  0  0  0  0  0  0  0  0  0
   27.1844   35.8863  102.5458 C   0  0  0  0  0  0  0  0  0  0  0  0
   31.5483   33.4773  103.0988 C   0  0  0  0  0  0  0  0  0  0  0  0
   30.3976   32.8301  102.7498 O   0  0  0  0  0  0  0  0  0  0  0  0
  1  7  2  0
  2  4  1  0
  2  9  1  0
  2 19  1  0
  3 15  1  0
  3 19  1  0
  4 11  1  0
  4 17  1  0
  5 15  2  0
  6  7  1  0
  6  9  1  0
  7 16  1  0
  8 12  1  0
  8 15  1  0
 10 17  1  0
 11 14  1  0
 13 20  1  0
 14 18  1  0
 17 18  1  0
 18 20  1  0
 20 21  1  0
M  END
>  <ID>  (1) 
conformer_0

$$$$
