
     RDKit          3D

 32 34  0  0  0  0  0  0  0  0999 V2000
   30.5792   34.7465  103.7261 C   0  0  0  0  0  0  0  0  0  0  0  0
   27.5193   35.7409  103.5566 C   0  0  0  0  0  0  0  0  0  0  0  0
   25.6527   34.7625  105.6533 C   0  0  0  0  0  0  0  0  0  0  0  0
   28.1832   34.6151  103.4570 N   0  0  0  0  0  0  0  0  0  0  0  0
   30.4672   36.1462  104.1440 C   0  0  0  0  0  0  0  0  0  0  0  0
   31.6784   32.7124  103.2022 N   0  0  0  0  0  0  0  0  0  0  0  0
   23.7755   36.0451   98.3906 N   0  0  0  0  0  0  0  0  0  0  0  0
   26.7753   34.2414  106.0146 O   0  0  0  0  0  0  0  0  0  0  0  0
   27.4921   34.9121   98.0949 C   0  0  0  0  0  0  0  0  0  0  0  0
   25.2030   35.2128  104.3792 C   0  0  0  0  0  0  0  0  0  0  0  0
   28.0621   36.9895  103.7564 C   0  0  0  0  0  0  0  0  0  0  0  0
   29.4108   34.1227  103.2889 C   0  0  0  0  0  0  0  0  0  0  0  0
   22.3964   33.8336  107.3606 N   0  0  0  0  0  0  0  0  0  0  0  0
   30.5812   32.2928  102.6560 C   0  0  0  0  0  0  0  0  0  0  0  0
   24.9975   33.9896  107.8991 C   0  0  0  0  0  0  0  0  0  0  0  0
   26.4806   35.4527  100.7671 C   0  0  0  0  0  0  0  0  0  0  0  0
   23.6208   35.9242  100.7400 C   0  0  0  0  0  0  0  0  0  0  0  0
   24.4371   34.3898  109.0218 O   0  0  0  0  0  0  0  0  0  0  0  0
   23.2717   33.9711  106.3138 C   0  0  0  0  0  0  0  0  0  0  0  0
   29.3586   36.9820  103.9857 C   0  0  0  0  0  0  0  0  0  0  0  0
   29.4515   32.9232  102.6692 N   0  0  0  0  0  0  0  0  0  0  0  0
   24.2942   35.7853  101.9010 C   0  0  0  0  0  0  0  0  0  0  0  0
   25.7035   35.6162  101.9681 C   0  0  0  0  0  0  0  0  0  0  0  0
   23.0654   33.3334  105.2465 O   0  0  0  0  0  0  0  0  0  0  0  0
   31.7245   33.9128  103.8211 C   0  0  0  0  0  0  0  0  0  0  0  0
   31.5495   36.7144  104.6668 O   0  0  0  0  0  0  0  0  0  0  0  0
   24.3594   35.8382   99.5581 C   0  0  0  0  0  0  0  0  0  0  0  0
   32.8462   34.1546  104.6061 N   0  0  0  0  0  0  0  0  0  0  0  0
   26.1561   35.1790   98.2680 O   0  0  0  0  0  0  0  0  0  0  0  0
   24.5869   34.4738  106.5993 N   0  0  0  0  0  0  0  0  0  0  0  0
   25.7372   35.4845   99.5235 C   0  0  0  0  0  0  0  0  0  0  0  0
   26.1051   35.6903  103.3678 C   0  0  0  0  0  0  0  0  0  0  0  0
  1  5  2  0
  1 12  1  0
  1 25  1  0
  2  4  2  0
  2 11  1  0
  2 32  1  0
  3  8  2  0
  3 10  1  0
  3 30  1  0
  4 12  1  0
  5 20  1  0
  5 26  1  0
  6 14  1  0
  6 25  1  0
  7 27  2  0
  9 29  1  0
 10 32  1  0
 11 20  1  0
 12 21  1  0
 13 19  1  0
 14 21  2  0
 15 18  1  0
 15 30  1  0
 16 23  1  0
 16 31  2  0
 17 22  2  0
 17 27  1  0
 19 24  2  0
 19 30  1  0
 22 23  1  0
 23 32  1  0
 25 28  2  0
 27 31  1  0
 29 31  1  0
M  END
>  <ID>  (1) 
conformer_0

$$$$
