
     RDKit          3D

 31 33  0  0  0  0  0  0  0  0999 V2000
   24.4087   33.6539  107.3721 C   0  0  0  0  0  0  0  0  0  0  0  0
   23.4333   35.3131  100.8089 N   0  0  0  0  0  0  0  0  0  0  0  0
   25.5538   36.3427  100.7291 C   0  0  0  0  0  0  0  0  0  0  0  0
   25.0853   34.9157  105.3166 C   0  0  0  0  0  0  0  0  0  0  0  0
   26.2828   35.6950  102.7395 C   0  0  0  0  0  0  0  0  0  0  0  0
   23.3213   37.2834   99.3477 O   0  0  0  0  0  0  0  0  0  0  0  0
   32.4322   33.7993  101.5220 O   0  0  0  0  0  0  0  0  0  0  0  0
   24.1956   34.6782  106.3952 N   0  0  0  0  0  0  0  0  0  0  0  0
   31.8717   34.3924  104.1211 N   0  0  0  0  0  0  0  0  0  0  0  0
   24.8855   35.6990  102.8321 C   0  0  0  0  0  0  0  0  0  0  0  0
   31.7082   33.0793  102.2987 C   0  0  0  0  0  0  0  0  0  0  0  0
   31.9694   31.9314  102.7474 O   0  0  0  0  0  0  0  0  0  0  0  0
   31.9097   34.6599  105.4282 C   0  0  0  0  0  0  0  0  0  0  0  0
   22.3128   33.5884  108.5933 O   0  0  0  0  0  0  0  0  0  0  0  0
   29.4937   34.4918  105.7684 C   0  0  0  0  0  0  0  0  0  0  0  0
   30.9422   33.8777  103.3477 C   0  0  0  0  0  0  0  0  0  0  0  0
   27.0285   35.1557  103.5683 C   0  0  0  0  0  0  0  0  0  0  0  0
   23.2327   36.1076  104.4450 O   0  0  0  0  0  0  0  0  0  0  0  0
   24.3936   35.5460  104.2292 C   0  0  0  0  0  0  0  0  0  0  0  0
   33.1614   35.0054  106.0348 C   0  0  0  0  0  0  0  0  0  0  0  0
   23.9330   34.8725  109.4155 O   0  0  0  0  0  0  0  0  0  0  0  0
   23.5541   33.9678  108.6117 C   0  0  0  0  0  0  0  0  0  0  0  0
   23.3494   35.9498   99.4803 C   0  0  0  0  0  0  0  0  0  0  0  0
   24.4916   35.8576  101.4809 C   0  0  0  0  0  0  0  0  0  0  0  0
   25.6897   33.3102  107.7661 O   0  0  0  0  0  0  0  0  0  0  0  0
   30.7296   34.6096  106.1220 C   0  0  0  0  0  0  0  0  0  0  0  0
   29.5724   33.9661  103.4286 C   0  0  0  0  0  0  0  0  0  0  0  0
   27.4164   34.6107  104.6159 C   0  0  0  0  0  0  0  0  0  0  0  0
   28.8560   34.2963  104.6227 C   0  0  0  0  0  0  0  0  0  0  0  0
   26.7301   36.2447  101.4886 C   0  0  0  0  0  0  0  0  0  0  0  0
   26.3832   34.4807  105.5050 O   0  0  0  0  0  0  0  0  0  0  0  0
  1  8  1  0
  1 22  1  0
  1 25  1  0
  2 23  1  0
  2 24  1  0
  3 24  1  0
  3 30  1  0
  4  8  1  0
  4 19  1  0
  4 31  1  0
  5 10  1  0
  5 17  2  0
  5 30  1  0
  6 23  1  0
  7 11  2  0
  9 13  2  0
  9 16  1  0
 10 19  1  0
 10 24  1  0
 11 12  1  0
 11 16  1  0
 13 20  1  0
 13 26  1  0
 14 22  2  0
 15 26  2  0
 15 29  1  0
 16 27  1  0
 17 28  2  0
 18 19  1  0
 21 22  1  0
 27 29  2  0
 28 29  1  0
 28 31  1  0
M  END
>  <ID>  (1) 
conformer_0

$$$$
