
     RDKit          3D

 30 33  0  0  0  0  0  0  0  0999 V2000
   23.3927   33.5975  107.6955 C   0  0  0  0  0  0  0  0  0  0  0  0
   25.8314   36.4578  100.5952 C   0  0  0  0  0  0  0  0  0  0  0  0
   27.2771   35.1563  103.7984 C   0  0  0  0  0  0  0  0  0  0  0  0
   24.0061   33.1307  106.4790 N   0  0  0  0  0  0  0  0  0  0  0  0
   26.6182   35.1326  105.0593 C   0  0  0  0  0  0  0  0  0  0  0  0
   26.7476   36.2701  101.6026 C   0  0  0  0  0  0  0  0  0  0  0  0
   25.7772   34.4057  107.4518 O   0  0  0  0  0  0  0  0  0  0  0  0
   29.6745   34.9941  103.7969 C   0  0  0  0  0  0  0  0  0  0  0  0
   31.1088   32.7263  102.9916 C   0  0  0  0  0  0  0  0  0  0  0  0
   25.0194   34.0135  106.4664 C   0  0  0  0  0  0  0  0  0  0  0  0
   24.5915   34.5617  103.9938 C   0  0  0  0  0  0  0  0  0  0  0  0
   23.5278   36.3692   98.5604 N   0  0  0  0  0  0  0  0  0  0  0  0
   24.1067   35.2968  101.7714 C   0  0  0  0  0  0  0  0  0  0  0  0
   27.7373   33.7990  103.4513 N   0  0  0  0  0  0  0  0  0  0  0  0
   31.7486   33.7545  103.6505 C   0  0  0  0  0  0  0  0  0  0  0  0
   24.5458   35.9585  100.6717 C   0  0  0  0  0  0  0  0  0  0  0  0
   29.7572   32.7547  102.7942 C   0  0  0  0  0  0  0  0  0  0  0  0
   23.6571   31.7068  104.6221 O   0  0  0  0  0  0  0  0  0  0  0  0
   29.0398   33.7648  103.3102 C   0  0  0  0  0  0  0  0  0  0  0  0
   31.0572   34.9063  104.0602 C   0  0  0  0  0  0  0  0  0  0  0  0
   23.2863   32.1053  105.8152 C   0  0  0  0  0  0  0  0  0  0  0  0
   26.3546   35.5893  102.7126 C   0  0  0  0  0  0  0  0  0  0  0  0
   31.6130   35.8310  104.8000 O   0  0  0  0  0  0  0  0  0  0  0  0
   28.9614   37.2037  103.8648 O   0  0  0  0  0  0  0  0  0  0  0  0
   22.2515   31.6446  106.4198 O   0  0  0  0  0  0  0  0  0  0  0  0
   23.5785   36.1174   99.7160 C   0  0  0  0  0  0  0  0  0  0  0  0
   33.1105   33.5580  103.9438 F   0  0  0  0  0  0  0  0  0  0  0  0
   28.6362   36.0040  103.9323 C   0  0  0  0  0  0  0  0  0  0  0  0
   25.0111   35.1394  102.8013 C   0  0  0  0  0  0  0  0  0  0  0  0
   25.3726   34.5753  105.1669 C   0  0  0  0  0  0  0  0  0  0  0  0
  1  4  1  0
  2  6  1  0
  2 16  1  0
  3  5  1  0
  3 14  1  0
  3 22  1  0
  3 28  1  0
  4 10  1  0
  4 21  1  0
  5 30  1  0
  6 22  2  0
  7 10  2  0
  8 19  1  0
  8 20  1  0
  8 28  1  0
  9 15  1  0
  9 17  1  0
 10 30  1  0
 11 29  1  0
 11 30  2  0
 12 26  2  0
 13 16  2  0
 13 29  1  0
 14 19  1  0
 15 20  2  0
 15 27  1  0
 16 26  1  0
 17 19  2  0
 18 21  2  0
 20 23  1  0
 21 25  1  0
 22 29  1  0
 24 28  2  0
M  END
>  <ID>  (1) 
conformer_0

$$$$
