
     RDKit          3D

 27 29  0  0  0  0  0  0  0  0999 V2000
   22.2776   32.6806  106.9178 C   0  0  0  0  0  0  0  0  0  0  0  0
   28.1651   36.1339  103.7896 C   0  0  0  0  0  0  0  0  0  0  0  0
   26.0875   34.4892  104.8661 C   0  0  0  0  0  0  0  0  0  0  0  0
   28.2614   34.7591  103.8062 C   0  0  0  0  0  0  0  0  0  0  0  0
   21.8262   35.0075  106.6863 C   0  0  0  0  0  0  0  0  0  0  0  0
   23.9928   36.0377  100.1798 C   0  0  0  0  0  0  0  0  0  0  0  0
   29.2631   36.8843  103.7494 C   0  0  0  0  0  0  0  0  0  0  0  0
   29.4329   34.1603  103.5448 C   0  0  0  0  0  0  0  0  0  0  0  0
   26.0321   36.7565  101.0362 C   0  0  0  0  0  0  0  0  0  0  0  0
   27.1967   33.9374  104.2779 O   0  0  0  0  0  0  0  0  0  0  0  0
   29.7770   32.9453  102.7737 C   0  0  0  0  0  0  0  0  0  0  0  0
   25.3454   35.2070  102.6184 N   0  0  0  0  0  0  0  0  0  0  0  0
   31.2346   33.4694  102.9496 C   0  0  0  0  0  0  0  0  0  0  0  0
   31.7754   34.5903  104.9641 C   0  0  0  0  0  0  0  0  0  0  0  0
   24.0682   34.1759  106.3698 C   0  0  0  0  0  0  0  0  0  0  0  0
   23.1690   35.2183  106.3989 N   0  0  0  0  0  0  0  0  0  0  0  0
   26.3280   35.9977  102.0393 C   0  0  0  0  0  0  0  0  0  0  0  0
   30.4627   36.2887  103.7906 N   0  0  0  0  0  0  0  0  0  0  0  0
   25.6016   34.4068  106.2390 C   0  0  0  0  0  0  0  0  0  0  0  0
   23.6034   32.9027  106.5726 C   0  0  0  0  0  0  0  0  0  0  0  0
   32.1118   33.6687  102.1590 O   0  0  0  0  0  0  0  0  0  0  0  0
   24.8641   36.7237  100.3707 C   0  0  0  0  0  0  0  0  0  0  0  0
   21.3496   33.7355  106.9731 C   0  0  0  0  0  0  0  0  0  0  0  0
   23.0254   35.8287   99.2690 O   0  0  0  0  0  0  0  0  0  0  0  0
   30.6679   34.8144  103.8477 C   0  0  0  0  0  0  0  0  0  0  0  0
   33.0252   33.9012  104.7706 N   0  0  0  0  0  0  0  0  0  0  0  0
   24.9721   34.9700  103.9793 C   0  0  0  0  0  0  0  0  0  0  0  0
  1 20  2  0
  1 23  1  0
  2  4  1  0
  2  7  1  0
  3 10  1  0
  3 19  1  0
  3 27  1  0
  4  8  1  0
  4 10  1  0
  5 16  1  0
  5 23  2  0
  6 22  1  0
  6 24  1  0
  7 18  2  0
  8 11  1  0
  8 25  1  0
  9 17  2  3
  9 22  1  0
 11 13  1  0
 12 17  1  0
 12 27  1  0
 13 21  1  0
 13 25  1  0
 14 25  1  0
 14 26  1  0
 15 16  2  0
 15 19  1  0
 15 20  1  0
 18 25  1  0
M  END
>  <ID>  (1) 
conformer_0

$$$$
