
     RDKit          3D

 31 33  0  0  0  0  0  0  0  0999 V2000
   31.8997   33.8987  101.2207 C   0  0  0  0  0  0  0  0  0  0  0  0
   26.4548   36.2659  101.3555 C   0  0  0  0  0  0  0  0  0  0  0  0
   28.9727   36.3610  103.5851 C   0  0  0  0  0  0  0  0  0  0  0  0
   26.5038   34.3209  105.2866 C   0  0  0  0  0  0  0  0  0  0  0  0
   31.8141   33.8150  102.6877 C   0  0  0  0  0  0  0  0  0  0  0  0
   24.1778   37.6149   99.8351 F   0  0  0  0  0  0  0  0  0  0  0  0
   31.4437   34.5697  105.6538 C   0  0  0  0  0  0  0  0  0  0  0  0
   24.9513   35.8959  101.1451 C   0  0  0  0  0  0  0  0  0  0  0  0
   30.6581   34.9272  104.5136 C   0  0  0  0  0  0  0  0  0  0  0  0
   33.4624   32.5654   99.8379 F   0  0  0  0  0  0  0  0  0  0  0  0
   21.9629   34.5362  108.1122 C   0  0  0  0  0  0  0  0  0  0  0  0
   25.4009   34.5155  104.4412 C   0  0  0  0  0  0  0  0  0  0  0  0
   26.7439   35.6607  102.7388 C   0  0  0  0  0  0  0  0  0  0  0  0
   27.6632   34.7779  104.8277 C   0  0  0  0  0  0  0  0  0  0  0  0
   32.7320   32.9879  103.2748 C   0  0  0  0  0  0  0  0  0  0  0  0
   22.7250   34.4280  109.3787 C   0  0  0  0  0  0  0  0  0  0  0  0
   30.1148   36.1769  104.2821 N   0  0  0  0  0  0  0  0  0  0  0  0
   30.5630   34.0126  103.3841 C   0  0  0  0  0  0  0  0  0  0  0  0
   33.3830   33.4103  100.8245 C   0  0  0  0  0  0  0  0  0  0  0  0
   24.8064   33.9655  107.9631 O   0  0  0  0  0  0  0  0  0  0  0  0
   24.1076   34.1666  104.9768 C   0  0  0  0  0  0  0  0  0  0  0  0
   29.4610   33.0824  103.0866 F   0  0  0  0  0  0  0  0  0  0  0  0
   25.5311   35.0453  103.1688 C   0  0  0  0  0  0  0  0  0  0  0  0
   23.1720   35.6229   99.6587 F   0  0  0  0  0  0  0  0  0  0  0  0
   24.0949   36.3638  100.1108 C   0  0  0  0  0  0  0  0  0  0  0  0
   24.4838   35.1530  102.1924 C   0  0  0  0  0  0  0  0  0  0  0  0
   22.7009   34.1967  106.8703 C   0  0  0  0  0  0  0  0  0  0  0  0
   34.3650   34.0357  101.2167 F   0  0  0  0  0  0  0  0  0  0  0  0
   24.1210   34.2870  109.1763 C   0  0  0  0  0  0  0  0  0  0  0  0
   27.8304   35.5475  103.6937 C   0  0  0  0  0  0  0  0  0  0  0  0
   24.2111   34.1405  106.5568 C   0  0  0  0  0  0  0  0  0  0  0  0
  1  5  1  0
  1 19  1  0
  2  8  1  0
  2 13  1  0
  3 17  1  0
  3 30  1  0
  4 12  1  0
  4 14  2  0
  5 15  2  0
  5 18  1  0
  6 25  1  0
  7  9  1  0
  8 25  1  0
  8 26  1  0
  9 17  1  0
  9 18  1  0
 10 19  1  0
 11 16  1  0
 11 27  1  0
 12 21  1  0
 12 23  2  0
 13 23  1  0
 13 30  2  0
 14 30  1  0
 16 29  1  0
 18 22  1  0
 19 28  1  0
 20 29  1  0
 20 31  1  0
 21 31  1  0
 23 26  1  0
 24 25  1  0
 27 31  1  0
M  END
>  <ID>  (1) 
conformer_0

$$$$
