
     RDKit          3D

 27 29  0  0  0  0  0  0  0  0999 V2000
   25.7163   34.1847  104.2777 C   0  0  0  0  0  0  0  0  0  0  0  0
   29.3855   34.7169  104.8005 C   0  0  0  0  0  0  0  0  0  0  0  0
   27.0179   34.7828  104.1891 C   0  0  0  0  0  0  0  0  0  0  0  0
   29.4659   36.6893  103.3777 O   0  0  0  0  0  0  0  0  0  0  0  0
   29.7867   35.4626  103.5886 C   0  0  0  0  0  0  0  0  0  0  0  0
   32.5638   33.8298  101.7540 O   0  0  0  0  0  0  0  0  0  0  0  0
   23.2289   33.5803  107.0153 C   0  0  0  0  0  0  0  0  0  0  0  0
   30.3930   34.1074  105.4669 C   0  0  0  0  0  0  0  0  0  0  0  0
   27.1996   35.6069  103.1111 C   0  0  0  0  0  0  0  0  0  0  0  0
   25.2851   33.4645  105.4915 C   0  0  0  0  0  0  0  0  0  0  0  0
   31.6170   33.6738  105.2614 C   0  0  0  0  0  0  0  0  0  0  0  0
   23.9118   36.4111   99.8453 O   0  0  0  0  0  0  0  0  0  0  0  0
   30.8171   34.9758  102.7859 C   0  0  0  0  0  0  0  0  0  0  0  0
   26.6639   36.1854  102.0757 C   0  0  0  0  0  0  0  0  0  0  0  0
   32.3485   33.5197  104.0863 O   0  0  0  0  0  0  0  0  0  0  0  0
   24.7611   34.0190  108.7812 O   0  0  0  0  0  0  0  0  0  0  0  0
   25.3089   38.0289  100.6640 O   0  0  0  0  0  0  0  0  0  0  0  0
   23.6753   33.2568  105.5316 C   0  0  0  0  0  0  0  0  0  0  0  0
   25.3841   35.9394  101.5912 C   0  0  0  0  0  0  0  0  0  0  0  0
   24.6215   34.9808  102.1420 C   0  0  0  0  0  0  0  0  0  0  0  0
   24.8675   36.8373  100.5918 C   0  0  0  0  0  0  0  0  0  0  0  0
   24.5244   34.0068  107.6349 C   0  0  0  0  0  0  0  0  0  0  0  0
   22.2764   34.8092  107.1256 N   0  0  0  0  0  0  0  0  0  0  0  0
   31.8814   34.1218  102.8713 C   0  0  0  0  0  0  0  0  0  0  0  0
   28.0376   34.5339  105.1075 C   0  0  0  0  0  0  0  0  0  0  0  0
   25.3966   34.4998  106.6100 O   0  0  0  0  0  0  0  0  0  0  0  0
   24.8356   34.2752  103.2474 C   0  0  0  0  0  0  0  0  0  0  0  0
  1  3  2  0
  1 10  1  0
  1 27  1  0
  2  5  1  0
  2  8  1  0
  2 25  1  0
  3  9  1  0
  3 25  1  0
  4  5  1  0
  5 13  1  0
  6 24  2  0
  7 18  1  0
  7 22  1  0
  7 23  1  0
  8 11  2  0
  9 14  2  0
 10 18  1  0
 10 26  1  0
 11 15  1  0
 12 21  2  0
 13 24  1  0
 14 19  1  0
 15 24  1  0
 16 22  2  0
 17 21  1  0
 19 20  1  0
 19 21  1  0
 20 27  2  0
 22 26  1  0
M  END
>  <ID>  (1) 
conformer_0

$$$$
