
     RDKit          3D

 27 29  0  0  0  0  0  0  0  0999 V2000
   25.1890   36.0815  100.8915 C   0  0  0  0  0  0  0  0  0  0  0  0
   29.9107   34.7652  104.5123 C   0  0  0  0  0  0  0  0  0  0  0  0
   25.7951   34.8890  104.4218 C   0  0  0  0  0  0  0  0  0  0  0  0
   29.9562   36.8140  103.4728 O   0  0  0  0  0  0  0  0  0  0  0  0
   27.8095   34.3553  105.5152 N   0  0  0  0  0  0  0  0  0  0  0  0
   23.3916   33.8778  107.0358 C   0  0  0  0  0  0  0  0  0  0  0  0
   21.9190   32.7014  105.3813 C   0  0  0  0  0  0  0  0  0  0  0  0
   25.2061   34.5270  105.5709 N   0  0  0  0  0  0  0  0  0  0  0  0
   21.2160   34.0035  105.8116 C   0  0  0  0  0  0  0  0  0  0  0  0
   25.2053   35.2446  103.2416 N   0  0  0  0  0  0  0  0  0  0  0  0
   30.2799   32.7701  102.7230 O   0  0  0  0  0  0  0  0  0  0  0  0
   23.3298   32.7763  105.9263 C   0  0  0  0  0  0  0  0  0  0  0  0
   25.9010   35.7713  102.1819 C   0  0  0  0  0  0  0  0  0  0  0  0
   25.1660   37.4826  100.6712 N   0  0  0  0  0  0  0  0  0  0  0  0
   29.3192   35.7595  103.6888 C   0  0  0  0  0  0  0  0  0  0  0  0
   27.8944   35.5358  103.4520 C   0  0  0  0  0  0  0  0  0  0  0  0
   32.0772   33.8121  105.2085 C   0  0  0  0  0  0  0  0  0  0  0  0
   25.5028   34.7278  107.9058 O   0  0  0  0  0  0  0  0  0  0  0  0
   27.1828   34.9253  104.4751 C   0  0  0  0  0  0  0  0  0  0  0  0
   31.3279   33.5866  102.8454 C   0  0  0  0  0  0  0  0  0  0  0  0
   24.8878   34.3948  106.8700 C   0  0  0  0  0  0  0  0  0  0  0  0
   27.2793   35.9452  102.2718 C   0  0  0  0  0  0  0  0  0  0  0  0
   32.2705   33.8114  101.9867 O   0  0  0  0  0  0  0  0  0  0  0  0
   33.5169   34.0207  104.9268 O   0  0  0  0  0  0  0  0  0  0  0  0
   29.1232   34.2030  105.4689 N   0  0  0  0  0  0  0  0  0  0  0  0
   21.8841   34.3420  107.1459 C   0  0  0  0  0  0  0  0  0  0  0  0
   31.3185   34.4669  104.0867 C   0  0  0  0  0  0  0  0  0  0  0  0
  1 13  1  0
  1 14  1  0
  2 15  1  0
  2 25  2  0
  2 27  1  0
  3  8  1  0
  3 10  2  0
  3 19  1  0
  4 15  2  0
  5 19  2  0
  5 25  1  0
  6 12  1  0
  6 21  1  0
  6 26  1  0
  7  9  1  0
  7 12  1  0
  8 21  1  0
  9 26  1  0
 10 13  1  0
 11 20  2  0
 13 22  2  0
 15 16  1  0
 16 19  1  0
 16 22  1  0
 17 24  1  0
 17 27  1  0
 18 21  2  0
 20 23  1  0
 20 27  1  0
M  END
>  <ID>  (1) 
conformer_0

$$$$
