
     RDKit          3D

 38 39  0  0  0  0  0  0  0  0999 V2000
   20.8358   33.6784  106.2290 C   0  0  0  0  0  0  0  0  0  0  0  0
   24.2923   34.5943  104.4096 N   0  0  0  0  0  0  0  0  0  0  0  0
   31.4010   32.2055  105.3326 C   0  0  0  0  0  0  0  0  0  0  0  0
   29.7772   36.5730  103.6385 O   0  0  0  0  0  0  0  0  0  0  0  0
   27.9855   25.9917  103.9871 F   0  0  0  0  0  0  0  0  0  0  0  0
   22.1780   34.1540  108.6886 N   0  0  0  0  0  0  0  0  0  0  0  0
   23.1667   34.3049  109.7014 C   0  0  0  0  0  0  0  0  0  0  0  0
   25.3605   34.8567  103.4613 C   0  0  0  0  0  0  0  0  0  0  0  0
   22.9647   34.4704  110.9755 O   0  0  0  0  0  0  0  0  0  0  0  0
   29.5805   25.8074  103.8652 F   0  0  0  0  0  0  0  0  0  0  0  0
   29.7864   30.4680  103.8035 C   0  0  0  0  0  0  0  0  0  0  0  0
   24.3970   34.1125  109.1315 N   0  0  0  0  0  0  0  0  0  0  0  0
   27.6706   35.1228  104.2327 C   0  0  0  0  0  0  0  0  0  0  0  0
   24.9696   35.1312  102.1645 C   0  0  0  0  0  0  0  0  0  0  0  0
   28.7919   28.0821  104.8935 C   0  0  0  0  0  0  0  0  0  0  0  0
   20.8298   34.4557  108.5715 C   0  0  0  0  0  0  0  0  0  0  0  0
   30.1575   32.1418  103.2797 C   0  0  0  0  0  0  0  0  0  0  0  0
   22.2080   33.3604  106.3149 C   0  0  0  0  0  0  0  0  0  0  0  0
   32.1390   33.4943  102.1858 O   0  0  0  0  0  0  0  0  0  0  0  0
   28.7410   27.0194  103.9624 C   0  0  0  0  0  0  0  0  0  0  0  0
   30.0286   35.3273  103.8091 C   0  0  0  0  0  0  0  0  0  0  0  0
   25.4198   37.1238  100.8147 C   0  0  0  0  0  0  0  0  0  0  0  0
   23.3950   36.5642   99.1518 O   0  0  0  0  0  0  0  0  0  0  0  0
   29.2232   29.2238  103.8712 C   0  0  0  0  0  0  0  0  0  0  0  0
   23.8605   35.6984  100.0071 C   0  0  0  0  0  0  0  0  0  0  0  0
   29.2269   27.8600  102.9193 F   0  0  0  0  0  0  0  0  0  0  0  0
   31.2069   34.7658  103.8486 N   0  0  0  0  0  0  0  0  0  0  0  0
   31.0584   29.8691  104.5142 O   0  0  0  0  0  0  0  0  0  0  0  0
   23.9029   33.1834  104.4267 O   0  0  0  0  0  0  0  0  0  0  0  0
   22.8675   32.6143  105.2544 C   0  0  0  0  0  0  0  0  0  0  0  0
   24.8099   35.8697  101.1399 C   0  0  0  0  0  0  0  0  0  0  0  0
   28.9874   34.4223  104.1701 C   0  0  0  0  0  0  0  0  0  0  0  0
   20.1646   34.2771  107.3435 C   0  0  0  0  0  0  0  0  0  0  0  0
   31.0553   33.3199  103.3933 C   0  0  0  0  0  0  0  0  0  0  0  0
   24.2146   33.7434  107.7669 C   0  0  0  0  0  0  0  0  0  0  0  0
   26.6583   34.6190  104.0609 C   0  0  0  0  0  0  0  0  0  0  0  0
   22.8051   33.7404  107.5424 C   0  0  0  0  0  0  0  0  0  0  0  0
   31.1031   31.2930  104.8301 C   0  0  0  0  0  0  0  0  0  0  0  0
  1 18  2  0
  1 33  1  0
  2  8  1  0
  2 29  1  0
  3 38  3  0
  4 21  2  0
  5 20  1  0
  6  7  1  0
  6 16  1  0
  6 37  1  0
  7  9  2  0
  7 12  1  0
  8 14  1  0
  8 36  1  0
 10 20  1  0
 11 17  1  0
 11 24  1  0
 11 28  1  0
 12 35  1  0
 13 32  1  0
 13 36  1  0
 14 31  1  0
 15 20  1  0
 15 24  1  0
 16 33  2  0
 17 34  1  0
 18 30  1  0
 18 37  1  0
 19 34  2  0
 20 26  1  0
 21 27  1  0
 21 32  1  0
 22 31  1  0
 23 25  1  0
 25 31  1  0
 27 34  1  0
 28 38  1  0
 29 30  1  0
 35 37  1  0
M  END
>  <ID>  (1) 
conformer_0

$$$$
