
     RDKit          3D

 21 23  0  0  0  0  0  0  0  0999 V2000
   25.7072   34.8971  104.5229 C   0  0  0  0  0  0  0  0  0  0  0  0
   32.6294   33.9552  104.6408 N   0  0  0  0  0  0  0  0  0  0  0  0
   24.6306   33.9418  106.3957 O   0  0  0  0  0  0  0  0  0  0  0  0
   28.2510   35.6701  103.5057 C   0  0  0  0  0  0  0  0  0  0  0  0
   24.5450   34.8193  105.4784 C   0  0  0  0  0  0  0  0  0  0  0  0
   29.6962   35.8700  103.5553 C   0  0  0  0  0  0  0  0  0  0  0  0
   30.3604   34.7058  104.1660 C   0  0  0  0  0  0  0  0  0  0  0  0
   31.6880   33.3894  102.5324 C   0  0  0  0  0  0  0  0  0  0  0  0
   26.8931   34.4249  105.1054 C   0  0  0  0  0  0  0  0  0  0  0  0
   24.7082   35.4761  102.2441 C   0  0  0  0  0  0  0  0  0  0  0  0
   27.0593   35.9592  102.7643 C   0  0  0  0  0  0  0  0  0  0  0  0
   28.1024   34.7250  104.5698 C   0  0  0  0  0  0  0  0  0  0  0  0
   29.3218   34.1370  104.9407 C   0  0  0  0  0  0  0  0  0  0  0  0
   26.6558   36.8085  101.1512 S   0  0  0  0  0  0  0  0  0  0  0  0
   25.7796   35.4398  103.2154 C   0  0  0  0  0  0  0  0  0  0  0  0
   30.2712   36.9559  103.4444 O   0  0  0  0  0  0  0  0  0  0  0  0
   31.5092   34.0213  103.8553 C   0  0  0  0  0  0  0  0  0  0  0  0
   24.9725   36.1578  101.0926 C   0  0  0  0  0  0  0  0  0  0  0  0
   33.0234   33.7748  101.9417 O   0  0  0  0  0  0  0  0  0  0  0  0
   24.0314   36.2706   99.9961 C   0  0  0  0  0  0  0  0  0  0  0  0
   23.7279   35.7987  105.5178 O   0  0  0  0  0  0  0  0  0  0  0  0
  1  5  1  0
  1  9  1  0
  1 15  1  0
  2 17  1  0
  3  5  2  0
  4  6  1  0
  4 11  1  0
  4 12  1  0
  5 21  1  0
  6  7  1  0
  6 16  2  0
  7 13  1  0
  7 17  1  0
  8 17  1  0
  8 19  1  0
  9 12  2  0
 10 15  1  0
 10 18  2  0
 11 14  1  0
 11 15  2  0
 12 13  1  0
 14 18  1  0
 18 20  1  0
M  END
>  <ID>  (1) 
conformer_0

$$$$
