
     RDKit          3D

 26 27  0  0  0  0  0  0  0  0999 V2000
   25.9803   35.3575  102.0640 C   0  0  0  0  0  0  0  0  0  0  0  0
   32.0932   33.8569  102.7530 C   0  0  0  0  0  0  0  0  0  0  0  0
   32.5361   32.6867  103.3595 O   0  0  0  0  0  0  0  0  0  0  0  0
   23.4667   35.9977   99.5904 C   0  0  0  0  0  0  0  0  0  0  0  0
   27.1838   35.7811  102.9513 C   0  0  0  0  0  0  0  0  0  0  0  0
   24.1239   33.4742  105.1122 C   0  0  0  0  0  0  0  0  0  0  0  0
   28.3346   36.6827  102.9755 O   0  0  0  0  0  0  0  0  0  0  0  0
   24.8873   35.6756   99.9099 O   0  0  0  0  0  0  0  0  0  0  0  0
   27.2803   35.3189  104.3693 C   0  0  0  0  0  0  0  0  0  0  0  0
   25.2669   36.2306  101.0789 C   0  0  0  0  0  0  0  0  0  0  0  0
   31.0076   34.3827  103.5801 C   0  0  0  0  0  0  0  0  0  0  0  0
   30.5192   36.6943  103.6354 O   0  0  0  0  0  0  0  0  0  0  0  0
   28.9583   33.6201  104.3949 O   0  0  0  0  0  0  0  0  0  0  0  0
   29.4908   35.9832  103.6868 C   0  0  0  0  0  0  0  0  0  0  0  0
   29.8739   33.4476  103.3623 C   0  0  0  0  0  0  0  0  0  0  0  0
   26.3993   34.3818  105.0017 O   0  0  0  0  0  0  0  0  0  0  0  0
   32.7658   34.3651  105.2353 O   0  0  0  0  0  0  0  0  0  0  0  0
   25.2150   34.0207  104.2589 C   0  0  0  0  0  0  0  0  0  0  0  0
   25.1315   34.6486  107.2380 O   0  0  0  0  0  0  0  0  0  0  0  0
   24.8998   37.3352  101.3921 O   0  0  0  0  0  0  0  0  0  0  0  0
   31.4187   34.4253  104.9844 C   0  0  0  0  0  0  0  0  0  0  0  0
   24.1390   34.0284  106.5176 C   0  0  0  0  0  0  0  0  0  0  0  0
   29.9352   32.5665  102.4504 O   0  0  0  0  0  0  0  0  0  0  0  0
   24.8948   34.6340  102.9216 C   0  0  0  0  0  0  0  0  0  0  0  0
   30.6789   34.3622  106.1291 O   0  0  0  0  0  0  0  0  0  0  0  0
   28.7988   35.0872  104.6509 C   0  0  0  0  0  0  0  0  0  0  0  0
  1  5  1  0
  1 10  1  0
  1 24  1  0
  2  3  1  0
  2 11  1  0
  4  8  1  0
  5  7  1  0
  5  9  1  0
  6 18  1  0
  6 22  1  0
  7 14  1  0
  8 10  1  0
  9 16  1  0
  9 26  1  0
 10 20  2  0
 11 15  1  0
 11 21  1  0
 12 14  2  0
 13 15  1  0
 13 26  1  0
 14 26  1  0
 15 23  2  0
 16 18  1  0
 17 21  2  0
 18 24  1  0
 19 22  1  0
 21 25  1  0
M  END
>  <ID>  (1) 
conformer_0

$$$$
