
     RDKit          3D

 29 31  0  0  0  0  0  0  0  0999 V2000
   26.0334   34.3045  104.2425 C   0  0  0  0  0  0  0  0  0  0  0  0
   27.7680   34.8835   98.0520 C   0  0  0  0  0  0  0  0  0  0  0  0
   31.0653   34.0790  103.2124 C   0  0  0  0  0  0  0  0  0  0  0  0
   24.5254   37.8123  100.9403 O   0  0  0  0  0  0  0  0  0  0  0  0
   26.2989   36.2311  100.8648 C   0  0  0  0  0  0  0  0  0  0  0  0
   24.1589   34.6737  106.0355 C   0  0  0  0  0  0  0  0  0  0  0  0
   23.7735   32.2723  105.9882 C   0  0  0  0  0  0  0  0  0  0  0  0
   25.5436   35.7927   98.3861 C   0  0  0  0  0  0  0  0  0  0  0  0
   31.7465   34.1189  105.5103 C   0  0  0  0  0  0  0  0  0  0  0  0
   23.7529   32.4783  104.4820 C   0  0  0  0  0  0  0  0  0  0  0  0
   25.5269   34.3657  105.6200 N   0  0  0  0  0  0  0  0  0  0  0  0
   25.6153   34.1572  108.2725 O   0  0  0  0  0  0  0  0  0  0  0  0
   25.4193   32.7217  103.6896 S   0  0  0  0  0  0  0  0  0  0  0  0
   30.4616   34.3101  105.9357 C   0  0  0  0  0  0  0  0  0  0  0  0
   25.2949   35.3072  103.3432 C   0  0  0  0  0  0  0  0  0  0  0  0
   28.5080   34.4729  103.0628 N   0  0  0  0  0  0  0  0  0  0  0  0
   29.4734   34.3910  105.0323 C   0  0  0  0  0  0  0  0  0  0  0  0
   24.8265   36.6854  100.5257 C   0  0  0  0  0  0  0  0  0  0  0  0
   28.1761   34.5124  105.2574 N   0  0  0  0  0  0  0  0  0  0  0  0
   26.1520   34.8208   97.6980 C   0  0  0  0  0  0  0  0  0  0  0  0
   26.1225   35.5155  102.1235 C   0  0  0  0  0  0  0  0  0  0  0  0
   24.1576   34.0349  108.3535 C   0  0  0  0  0  0  0  0  0  0  0  0
   31.3859   33.8581  101.8531 C   0  0  0  0  0  0  0  0  0  0  0  0
   32.8589   33.8357  101.5906 O   0  0  0  0  0  0  0  0  0  0  0  0
   24.4638   35.8490   99.3576 C   0  0  0  0  0  0  0  0  0  0  0  0
   27.5516   34.4382  104.1166 C   0  0  0  0  0  0  0  0  0  0  0  0
   29.7256   34.3171  103.6253 C   0  0  0  0  0  0  0  0  0  0  0  0
   32.0551   33.9990  104.1849 C   0  0  0  0  0  0  0  0  0  0  0  0
   23.6511   33.5123  106.9751 C   0  0  0  0  0  0  0  0  0  0  0  0
  1 11  1  0
  1 13  1  0
  1 15  1  0
  1 26  1  0
  2 20  1  0
  3 23  1  0
  3 27  2  0
  3 28  1  0
  4 18  2  0
  5 18  1  0
  5 21  1  0
  6 11  1  0
  6 29  1  0
  7 10  1  0
  7 29  1  0
  8 20  1  0
  8 25  1  0
  9 14  1  0
  9 28  2  0
 10 13  1  0
 12 22  1  0
 14 17  2  0
 15 21  1  0
 16 26  2  0
 16 27  1  0
 17 19  1  0
 17 27  1  0
 18 25  1  0
 19 26  1  0
 22 29  1  0
 23 24  1  0
M  END
>  <ID>  (1) 
conformer_0

$$$$
