
     RDKit          3D

 37 40  0  0  0  0  0  0  0  0999 V2000
   24.4789   36.0694  100.7623 N   0  0  0  0  0  0  0  0  0  0  0  0
   28.5866   35.1730  104.9053 C   0  0  0  0  0  0  0  0  0  0  0  0
   22.8880   33.3299  107.0925 C   0  0  0  0  0  0  0  0  0  0  0  0
   20.4899   31.9129  107.6047 C   0  0  0  0  0  0  0  0  0  0  0  0
   25.9184   33.0588  107.9990 O   0  0  0  0  0  1  0  0  0  0  0  0
   25.0669   37.0325  100.3196 C   0  0  0  0  0  0  0  0  0  0  0  0
   21.3718   31.5278  106.5913 C   0  0  0  0  0  0  0  0  0  0  0  0
   26.6624   35.6245  103.5211 C   0  0  0  0  0  0  0  0  0  0  0  0
   30.1245   32.5869  102.5914 C   0  0  0  0  0  0  0  0  0  0  0  0
   24.1005   34.0811  106.6485 N   0  0  0  0  0  0  0  0  0  0  0  0
   24.5339   34.5035  104.0377 C   0  0  0  0  0  0  0  0  0  0  0  0
   22.0183   33.7212  108.1324 C   0  0  0  0  0  0  0  0  0  0  0  0
   20.8184   33.0136  108.4161 C   0  0  0  0  0  0  0  0  0  0  0  0
   25.1338   34.0998  107.8180 S   0  0  0  0  0  4  0  0  0  0  0  0
   24.8723   35.5446  101.9850 C   0  0  0  0  0  0  0  0  0  0  0  0
   25.3960   34.8965  106.6572 C   0  0  0  0  0  0  0  0  0  0  0  0
   32.3673   33.2525  103.6212 N   0  0  0  0  0  0  0  0  0  0  0  0
   34.5422   33.8434  105.1259 F   0  0  0  0  0  0  0  0  0  0  0  0
   22.6836   34.6598  100.3203 C   0  0  0  0  0  0  0  0  0  0  0  0
   27.9845   35.7936  103.8252 C   0  0  0  0  0  0  0  0  0  0  0  0
   31.8127   33.9474  101.5264 O   0  0  0  0  0  0  0  0  0  0  0  0
   22.5418   32.2058  106.3372 C   0  0  0  0  0  0  0  0  0  0  0  0
   23.3599   35.6702  100.0378 C   0  0  0  0  0  0  0  0  0  0  0  0
   26.1195   36.0172  102.3531 C   0  0  0  0  0  0  0  0  0  0  0  0
   30.8602   34.1313  105.0806 C   0  0  0  0  0  0  0  0  0  0  0  0
   27.7857   34.6961  105.9431 C   0  0  0  0  0  0  0  0  0  0  0  0
   31.4444   33.3103  102.5148 C   0  0  0  0  0  0  0  0  0  0  0  0
   26.4015   34.7575  105.7023 C   0  0  0  0  0  0  0  0  0  0  0  0
   29.9159   35.1219  104.6542 C   0  0  0  0  0  0  0  0  0  0  0  0
   28.9274   36.4876  103.1427 N   0  0  0  0  0  0  0  0  0  0  0  0
   24.0198   34.7569  102.7501 C   0  0  0  0  0  0  0  0  0  0  0  0
   23.1539   36.4148   99.0378 O   0  0  0  0  0  0  0  0  0  0  0  0
   25.8483   34.9261  104.3960 C   0  0  0  0  0  0  0  0  0  0  0  0
   33.1938   34.0406  105.6733 C   0  0  0  0  0  0  0  0  0  0  0  0
   30.1848   36.0197  103.6598 C   0  0  0  0  0  0  0  0  0  0  0  0
   24.6264   34.7070  108.9034 O   0  0  0  0  0  1  0  0  0  0  0  0
   32.2020   34.3651  104.5326 C   0  0  0  0  0  0  0  0  0  0  0  0
  1  6  1  0
  1 15  1  0
  1 23  1  0
  2 20  1  0
  2 26  2  0
  2 29  1  0
  3 10  1  0
  3 12  1  0
  3 22  2  0
  4  7  2  0
  4 13  1  0
  5 14  1  0
  7 22  1  0
  8 20  1  0
  8 24  2  0
  8 33  1  0
  9 27  1  0
 10 14  1  0
 11 31  1  0
 11 33  2  0
 12 13  2  0
 14 16  1  0
 14 36  1  0
 15 24  1  0
 15 31  1  0
 16 28  1  0
 17 27  1  0
 17 37  1  0
 18 34  1  0
 19 23  1  0
 20 30  1  0
 21 27  2  0
 23 32  2  0
 25 29  1  0
 25 37  1  0
 26 28  1  0
 28 33  1  0
 29 35  1  0
 30 35  1  0
 34 37  1  0
M  END
>  <ID>  (1) 
conformer_0

$$$$
