
     RDKit          3D

 27 30  0  0  0  0  0  0  0  0999 V2000
   25.4966   34.8986  105.2656 C   0  0  0  0  0  0  0  0  0  0  0  0
   30.2580   34.0311  105.5288 C   0  0  0  0  0  0  0  0  0  0  0  0
   26.0335   35.4684  103.0402 C   0  0  0  0  0  0  0  0  0  0  0  0
   24.4575   34.8841  106.2674 N   0  0  0  0  0  0  0  0  0  0  0  0
   31.1420   35.3783  103.2918 N   0  0  0  0  0  0  0  0  0  0  0  0
   24.9495   36.8462   99.9552 C   0  0  0  0  0  0  0  0  0  0  0  0
   24.2541   35.3855  101.4469 N   0  0  0  0  0  0  0  0  0  0  0  0
   31.7153   33.8293  104.9872 C   0  0  0  0  0  0  0  0  0  0  0  0
   29.6169   37.0063  103.5664 O   0  0  0  0  0  0  0  0  0  0  0  0
   23.9739   35.9629  100.2934 N   0  0  0  0  0  0  0  0  0  0  0  0
   24.2710   34.0458  107.5655 C   0  0  0  0  0  0  0  0  0  0  0  0
   27.3680   35.4147  103.3167 C   0  0  0  0  0  0  0  0  0  0  0  0
   27.8363   35.0648  104.5844 C   0  0  0  0  0  0  0  0  0  0  0  0
   30.4647   33.0690  102.8648 C   0  0  0  0  0  0  0  0  0  0  0  0
   29.3035   34.9950  104.9055 C   0  0  0  0  0  0  0  0  0  0  0  0
   25.9041   36.7691  100.9490 C   0  0  0  0  0  0  0  0  0  0  0  0
   33.1108   34.0460  105.2546 O   0  0  0  0  0  0  0  0  0  0  0  0
   25.4541   35.8740  101.8297 C   0  0  0  0  0  0  0  0  0  0  0  0
   23.1226   34.4086  105.6462 C   0  0  0  0  0  0  0  0  0  0  0  0
   32.7209   33.8307  102.7251 N   0  0  0  0  0  0  0  0  0  0  0  0
   31.5775   34.0124  103.4249 C   0  0  0  0  0  0  0  0  0  0  0  0
   30.0047   35.8594  103.8875 C   0  0  0  0  0  0  0  0  0  0  0  0
   26.8593   34.7951  105.5617 C   0  0  0  0  0  0  0  0  0  0  0  0
   25.1322   35.1128  104.0049 C   0  0  0  0  0  0  0  0  0  0  0  0
   23.6549   34.7881  108.4937 O   0  0  0  0  0  0  0  0  0  0  0  0
   25.4198   33.4820  107.8716 O   0  0  0  0  0  0  0  0  0  0  0  0
   23.1430   33.2294  106.7667 C   0  0  0  0  0  0  0  0  0  0  0  0
  1  4  1  0
  1 23  1  0
  1 24  2  0
  2  8  1  0
  2 15  1  0
  3 12  2  0
  3 18  1  0
  3 24  1  0
  4 11  1  0
  4 19  1  0
  5 21  1  0
  5 22  1  0
  6 10  1  0
  6 16  1  0
  7 10  1  0
  7 18  1  0
  8 17  1  0
  8 21  1  0
  9 22  2  0
 11 25  1  0
 11 26  1  0
 11 27  1  0
 12 13  1  0
 13 15  1  0
 13 23  2  0
 14 21  1  0
 15 22  1  0
 16 18  1  0
 19 27  1  0
 20 21  1  0
M  END
>  <ID>  (1) 
conformer_0

$$$$
