
     RDKit          3D

 38 42  0  0  0  0  0  0  0  0999 V2000
   32.0211   33.7931  101.7757 C   0  0  0  0  0  0  0  0  0  0  0  0
   28.2785   32.5415  105.1518 F   0  0  0  0  0  0  0  0  0  0  0  0
   27.7438   34.2982  106.1324 C   0  0  0  0  0  0  0  0  0  0  0  0
   22.5421   29.8366  105.3502 C   0  0  0  0  0  0  0  0  0  0  0  0
   31.2127   36.8101  105.6240 C   0  0  0  0  0  0  0  0  0  0  0  0
   24.2137   35.9336  100.5894 C   0  0  0  0  0  0  0  0  0  0  0  0
   24.5396   35.6991  102.0555 C   0  0  0  0  0  0  0  0  0  0  0  0
   29.2775   34.8179  103.9482 C   0  0  0  0  0  0  0  0  0  0  0  0
   23.0291   31.6570  103.8506 O   0  0  0  0  0  0  0  0  0  0  0  0
   28.8037   36.0249  104.9002 C   0  0  0  0  0  0  0  0  0  0  0  0
   30.3161   32.4538  102.9134 C   0  0  0  0  0  0  0  0  0  0  0  0
   26.5621   36.0719  100.8449 C   0  0  0  0  0  0  0  0  0  0  0  0
   31.5574   35.6451  104.5981 C   0  0  0  0  0  0  0  0  0  0  0  0
   21.8540   31.7192  106.5988 C   0  0  0  0  0  0  0  0  0  0  0  0
   25.1436   33.5141  108.0759 O   0  0  0  0  0  0  0  0  0  0  0  0
   27.4215   36.3358  104.4870 C   0  0  0  0  0  0  0  0  0  0  0  0
   30.7215   35.1073  103.4687 C   0  0  0  0  0  0  0  0  0  0  0  0
   28.5997   34.4815  102.4492 C   0  0  0  0  0  0  0  0  0  0  0  0
   21.6272   30.2974  106.3100 O   0  0  0  0  0  0  0  0  0  0  0  0
   30.4790   33.5583  105.9026 C   0  0  0  0  0  0  0  0  0  0  0  0
   26.9190   36.6125  103.1441 O   0  0  0  0  0  0  0  0  0  0  0  0
   29.4625   37.0742  105.4323 C   0  0  0  0  0  0  0  0  0  0  0  0
   26.2834   34.2991  106.1240 C   0  0  0  0  0  0  0  0  0  0  0  0
   23.7567   35.3824  104.7336 O   0  0  0  0  0  0  0  0  0  0  0  0
   25.1029   33.7435  106.8296 C   0  0  0  0  0  0  0  0  0  0  0  0
   32.1909   33.3321  104.1916 O   0  0  0  0  0  0  0  0  0  0  0  0
   26.0480   36.0194  102.3324 C   0  0  0  0  0  0  0  0  0  0  0  0
   23.6942   33.9531  104.7761 C   0  0  0  0  0  0  0  0  0  0  0  0
   23.4993   31.0551  105.0926 C   0  0  0  0  0  0  0  0  0  0  0  0
   31.3147   33.6218  103.0017 C   0  0  0  0  0  0  0  0  0  0  0  0
   23.8761   33.3144  106.1111 C   0  0  0  0  0  0  0  0  0  0  0  0
   26.6038   36.7364  105.4382 O   0  0  0  0  0  0  0  0  0  0  0  0
   23.2009   36.0430   99.8043 O   0  0  0  0  0  0  0  0  0  0  0  0
   29.1846   33.8023  105.1413 C   0  0  0  0  0  0  0  0  0  0  0  0
   28.2863   34.0582  107.5772 C   0  0  0  0  0  0  0  0  0  0  0  0
   23.2968   31.9443  106.2726 C   0  0  0  0  0  0  0  0  0  0  0  0
   31.7532   34.2161  105.3943 C   0  0  0  0  0  0  0  0  0  0  0  0
   25.4797   36.2620   99.9911 N   0  0  0  0  0  0  0  0  0  0  0  0
  1 30  1  0
  2 34  1  0
  3 23  1  0
  3 34  1  0
  3 35  1  0
  4 19  1  0
  4 29  1  0
  5 13  1  0
  5 22  1  0
  6  7  1  0
  6 33  2  0
  6 38  1  0
  7 27  1  0
  8 10  1  0
  8 17  1  0
  8 18  1  0
  8 34  1  0
  9 29  1  0
 10 16  1  0
 10 22  1  0
 11 30  1  0
 12 27  1  0
 12 38  1  0
 13 17  1  0
 13 37  1  0
 14 19  1  0
 14 36  1  0
 15 25  2  0
 16 21  1  0
 16 32  2  0
 17 30  1  0
 20 34  1  0
 20 37  1  0
 21 27  1  0
 23 25  1  0
 24 28  1  0
 25 31  1  0
 26 30  1  0
 26 37  1  0
 28 31  1  0
 29 36  1  0
 31 36  1  0
M  END
>  <ID>  (1) 
conformer_0

$$$$
