
     RDKit          3D

 27 29  0  0  0  0  0  0  0  0999 V2000
   23.1764   31.7155  104.0892 C   0  0  0  0  0  0  0  0  0  0  0  0
   25.9757   36.1077  101.3603 C   0  0  0  0  0  0  0  0  0  0  0  0
   21.5004   33.1345  105.5437 C   0  0  0  0  0  0  0  0  0  0  0  0
   22.8976   32.6026  105.3200 C   0  0  0  0  0  0  0  0  0  0  0  0
   25.1280   34.8986  103.3515 C   0  0  0  0  0  0  0  0  0  0  0  0
   23.8908   32.6548  106.4274 C   0  0  0  0  0  0  0  0  0  0  0  0
   24.4668   33.9441  106.8472 C   0  0  0  0  0  0  0  0  0  0  0  0
   24.9695   34.0799  108.1664 O   0  0  0  0  0  0  0  0  0  0  0  0
   26.6214   34.9166  105.3303 C   0  0  0  0  0  0  0  0  0  0  0  0
   27.3358   36.0087  101.8077 C   0  0  0  0  0  0  0  0  0  0  0  0
   24.8743   35.2800  101.9377 C   0  0  0  0  0  0  0  0  0  0  0  0
   25.2143   34.8575  105.9662 C   0  0  0  0  0  0  0  0  0  0  0  0
   25.3198   37.1400  100.5584 C   0  0  0  0  0  0  0  0  0  0  0  0
   27.9815   34.3976  105.2638 O   0  0  0  0  0  0  0  0  0  0  0  0
   30.7054   33.4431  103.7360 C   0  0  0  0  0  0  0  0  0  0  0  0
   29.8592   35.6249  104.3073 C   0  0  0  0  0  0  0  0  0  0  0  0
   28.6729   34.7406  103.9894 C   0  0  0  0  0  0  0  0  0  0  0  0
   27.6147   35.3486  103.1121 C   0  0  0  0  0  0  0  0  0  0  0  0
   32.3700   33.8068  102.0614 O   0  0  0  0  0  0  0  0  0  0  0  0
   29.2477   33.4855  103.3680 C   0  0  0  0  0  0  0  0  0  0  0  0
   26.4059   35.3484  103.8956 N   0  0  0  0  0  0  0  0  0  0  0  0
   29.8779   36.8553  103.6614 O   0  0  0  0  0  0  0  0  0  0  0  0
   32.2756   34.8197  104.7342 O   0  0  0  0  0  0  0  0  0  0  0  0
   23.9716   36.9128  100.2121 O   0  0  0  0  0  0  0  0  0  0  0  0
   31.1336   34.8666  104.0591 C   0  0  0  0  0  0  0  0  0  0  0  0
   24.5070   36.0551  105.7043 O   0  0  0  0  0  0  0  0  0  0  0  0
   31.8662   32.9059  103.0093 C   0  0  0  0  0  0  0  0  0  0  0  0
  1  4  1  0
  2 10  1  0
  2 11  1  0
  2 13  1  0
  3  4  1  0
  4  6  1  0
  5 11  1  0
  5 21  1  0
  6  7  1  0
  7  8  1  0
  7 12  1  0
  9 12  1  0
  9 14  1  0
  9 21  1  0
 10 18  1  0
 12 26  1  0
 13 24  1  0
 14 17  1  0
 15 20  1  0
 15 25  1  0
 15 27  1  0
 16 17  1  0
 16 22  1  0
 16 25  1  0
 17 18  1  0
 17 20  1  0
 18 21  1  0
 19 27  1  0
 23 25  1  0
M  END
>  <ID>  (1) 
conformer_0

$$$$
