
     RDKit          3D

 27 28  0  0  0  0  0  0  0  0999 V2000
   29.1930   35.7855  103.9815 C   0  0  0  0  0  0  0  0  0  0  0  0
   32.5173   33.4714  103.3646 N   0  0  0  0  0  0  0  0  0  0  0  0
   24.5207   34.7109  108.5968 O   0  0  0  0  0  0  0  0  0  0  0  0
   25.2448   34.7944  105.6215 C   0  0  0  0  0  0  0  0  0  0  0  0
   24.9373   33.8993  107.7475 C   0  0  0  0  0  0  0  0  0  0  0  0
   24.2913   33.8535  106.3873 C   0  0  0  0  0  0  0  0  0  0  0  0
   26.3318   36.4880  101.2808 C   0  0  0  0  0  0  0  0  0  0  0  0
   27.7571   33.9424  104.3661 O   0  0  0  0  0  0  0  0  0  0  0  0
   25.4688   35.6423  102.0471 C   0  0  0  0  0  0  0  0  0  0  0  0
   24.5871   35.5298   99.9631 C   0  0  0  0  0  0  0  0  0  0  0  0
   24.9479   34.4751  104.0900 C   0  0  0  0  0  0  0  0  0  0  0  0
   23.3134   37.0431   98.7834 O   0  0  0  0  0  0  0  0  0  0  0  0
   31.7088   33.6039  102.3141 C   0  0  0  0  0  0  0  0  0  0  0  0
   23.3511   35.9121   99.2702 C   0  0  0  0  0  0  0  0  0  0  0  0
   29.3247   37.0428  103.8009 O   0  0  0  0  0  0  0  0  0  0  0  0
   25.5810   35.5965  103.3820 N   0  0  0  0  0  0  0  0  0  0  0  0
   30.3176   34.9275  103.6701 C   0  0  0  0  0  0  0  0  0  0  0  0
   26.7542   36.1527  103.9077 C   0  0  0  0  0  0  0  0  0  0  0  0
   22.4030   35.0762   99.5202 O   0  0  0  0  0  0  0  0  0  0  0  0
   31.4981   35.2289  104.2346 N   0  0  0  0  0  0  0  0  0  0  0  0
   25.6447   36.5603   99.9324 C   0  0  0  0  0  0  0  0  0  0  0  0
   30.3875   33.9114  102.6764 C   0  0  0  0  0  0  0  0  0  0  0  0
   23.7143   35.0732  105.9853 C   0  0  0  0  0  0  0  0  0  0  0  0
   32.2615   34.1166  104.5467 C   0  0  0  0  0  0  0  0  0  0  0  0
   27.8630   35.2063  104.0884 C   0  0  0  0  0  0  0  0  0  0  0  0
   26.0592   33.3012  107.7379 O   0  0  0  0  0  0  0  0  0  0  0  0
   24.2754   35.1626  101.3817 C   0  0  0  0  0  0  0  0  0  0  0  0
  1 15  2  0
  1 17  1  0
  1 25  1  0
  2 13  1  0
  2 24  1  0
  3  5  2  0
  4  6  1  0
  4 11  1  0
  5  6  1  0
  5 26  1  0
  6 23  1  0
  7  9  1  0
  7 21  1  0
  8 25  1  0
  9 16  1  0
  9 27  1  0
 10 14  1  0
 10 21  1  0
 10 27  1  0
 11 16  1  0
 12 14  2  0
 13 22  1  0
 14 19  1  0
 16 18  1  0
 17 20  1  0
 17 22  1  0
 18 25  1  0
 20 24  1  0
M  END
>  <ID>  (1) 
conformer_0

$$$$
