
     RDKit          3D

 19 20  0  0  0  0  0  0  0  0999 V2000
   25.2027   34.7213  106.6137 C   0  0  0  0  0  0  0  0  0  0  0  0
   23.5678   36.3382   99.4074 N   0  0  0  0  0  0  0  0  0  0  0  0
   30.1984   34.3663  105.1270 C   0  0  0  0  0  0  0  0  0  0  0  0
   24.5243   36.5571   99.8720 C   0  0  0  0  0  0  0  0  0  0  0  0
   29.4111   34.7867  104.1331 N   0  0  0  0  0  0  0  0  0  0  0  0
   28.0117   34.9648  104.1005 C   0  0  0  0  0  0  0  0  0  0  0  0
   27.3245   35.2862  102.9221 C   0  0  0  0  0  0  0  0  0  0  0  0
   25.4860   36.6264  100.8651 N   0  0  0  0  0  0  0  0  0  0  0  0
   27.3106   34.7778  105.2750 C   0  0  0  0  0  0  0  0  0  0  0  0
   31.3500   34.2488  103.2070 C   0  0  0  0  0  0  0  0  0  0  0  0
   25.9289   35.2839  102.8822 C   0  0  0  0  0  0  0  0  0  0  0  0
   25.2554   35.0035  104.0861 C   0  0  0  0  0  0  0  0  0  0  0  0
   30.1604   34.8450  102.9819 N   0  0  0  0  0  0  0  0  0  0  0  0
   31.4415   34.0068  104.5524 N   0  0  0  0  0  0  0  0  0  0  0  0
   32.1968   33.8627  102.2040 N   0  0  0  0  0  0  0  0  0  0  0  0
   25.1393   35.4577  101.6731 C   0  0  0  0  0  0  0  0  0  0  0  0
   23.9692   34.9880  106.6609 O   0  0  0  0  0  0  0  0  0  0  0  0
   25.8530   34.4648  107.6665 O   0  0  0  0  0  0  0  0  0  0  0  0
   25.9260   34.8064  105.3180 C   0  0  0  0  0  0  0  0  0  0  0  0
  1 17  2  0
  1 18  1  0
  1 19  1  0
  2  4  3  0
  3  5  1  0
  3 14  1  0
  4  8  1  0
  5  6  1  0
  5 13  1  0
  6  7  2  0
  6  9  1  0
  7 11  1  0
  8 16  1  0
  9 19  2  0
 10 13  1  0
 10 14  1  0
 10 15  2  0
 11 12  2  0
 11 16  1  0
 12 19  1  0
M  END
>  <ID>  (1) 
conformer_0

$$$$
