
     RDKit          3D

 24 25  0  0  0  0  0  0  0  0999 V2000
   24.6384   34.4801  105.1870 C   0  0  0  0  0  0  0  0  0  0  0  0
   24.5800   34.8864  106.5950 C   0  0  0  0  0  0  0  0  0  0  0  0
   23.6198   35.1727  101.0135 C   0  0  0  0  0  0  0  0  0  0  0  0
   24.0746   36.2071  100.1469 C   0  0  0  0  0  0  0  0  0  0  0  0
   25.3174   36.8215  100.3154 C   0  0  0  0  0  0  0  0  0  0  0  0
   26.1378   36.4715  101.4051 C   0  0  0  0  0  0  0  0  0  0  0  0
   23.2760   36.5855   99.1837 F   0  0  0  0  0  0  0  0  0  0  0  0
   26.2880   35.3848  103.5739 C   0  0  0  0  0  0  0  0  0  0  0  0
   26.4139   33.6648  107.5617 O   0  0  0  0  0  0  0  0  0  0  0  0
   29.8309   33.4687  103.1630 C   0  0  0  0  0  0  0  0  0  0  0  0
   29.6612   36.2022  103.6842 N   0  0  0  0  0  0  0  0  0  0  0  0
   28.6023   34.0548  103.3644 C   0  0  0  0  0  0  0  0  0  0  0  0
   30.8390   35.5903  103.5257 C   0  0  0  0  0  0  0  0  0  0  0  0
   30.9562   34.2627  103.2887 C   0  0  0  0  0  0  0  0  0  0  0  0
   24.7495   34.5013  108.8070 O   0  0  0  0  0  0  0  0  0  0  0  0
   26.1863   34.4104  104.6970 C   0  0  0  0  0  0  0  0  0  0  0  0
   24.4397   34.8312  102.0327 C   0  0  0  0  0  0  0  0  0  0  0  0
   28.5302   35.4397  103.5752 C   0  0  0  0  0  0  0  0  0  0  0  0
   32.6975   33.6054  101.9365 O   0  0  0  0  0  0  0  0  0  0  0  0
   32.9670   33.4000  104.1952 N   0  0  0  0  0  0  0  0  0  0  0  0
   25.6547   35.5350  102.3082 C   0  0  0  0  0  0  0  0  0  0  0  0
   32.2967   33.6852  103.0966 C   0  0  0  0  0  0  0  0  0  0  0  0
   25.3071   34.2421  107.6406 C   0  0  0  0  0  0  0  0  0  0  0  0
   27.3730   36.2209  103.7086 N   0  0  0  0  0  0  0  0  0  0  0  0
  1  2  1  0
  1 16  1  0
  2 23  1  0
  3  4  2  0
  3 17  1  0
  4  5  1  0
  4  7  1  0
  5  6  2  0
  6 21  1  0
  8 16  1  0
  8 21  1  0
  8 24  1  0
  9 23  2  0
 10 12  2  0
 10 14  1  0
 11 13  1  0
 11 18  2  0
 12 18  1  0
 13 14  2  0
 14 22  1  0
 15 23  1  0
 17 21  2  0
 18 24  1  0
 19 22  2  0
 20 22  1  0
M  END
>  <ID>  (1) 
conformer_0

$$$$
