
     RDKit          3D

 34 35  0  0  0  0  0  0  0  0999 V2000
   25.4659   34.3113  104.7018 C   0  0  0  0  0  0  0  0  0  0  0  0
   24.4700   35.7234  102.8024 O   0  0  0  0  0  0  0  0  0  0  0  0
   22.6766   35.4404  106.1785 C   0  0  0  0  0  0  0  0  0  0  0  0
   28.7856   33.3196  103.6920 C   0  0  0  0  0  0  0  0  0  0  0  0
   31.4619   35.8530  104.8871 O   0  0  0  0  0  0  0  0  0  0  0  0
   25.3940   37.6065  100.8169 O   0  0  0  0  0  0  0  0  0  0  0  0
   29.3043   35.8122  103.7462 C   0  0  0  0  0  0  0  0  0  0  0  0
   22.7256   31.9586  104.7133 C   0  0  0  0  0  0  0  0  0  0  0  0
   23.3601   36.5448   99.1919 O   0  0  0  0  0  0  0  0  0  0  0  0
   24.2791   33.2267  106.4719 C   0  0  0  0  0  0  0  0  0  0  0  0
   23.5959   36.4166  105.5476 O   0  0  0  0  0  0  0  0  0  0  0  0
   27.7842   35.7985  103.8607 C   0  0  0  0  0  0  0  0  0  0  0  0
   30.4734   34.9528  104.2939 C   0  0  0  0  0  0  0  0  0  0  0  0
   26.5847   34.7777  103.7083 C   0  0  0  0  0  0  0  0  0  0  0  0
   29.4333   33.6418  104.8983 O   0  0  0  0  0  0  0  0  0  0  0  0
   31.1535   34.0761  103.1974 C   0  0  0  0  0  0  0  0  0  0  0  0
   26.4172   33.4957  107.5496 O   0  0  0  0  0  0  0  0  0  0  0  0
   31.9529   34.1868  102.0280 O   0  0  0  0  0  0  0  0  0  0  0  0
   32.0848   33.1155  104.0803 C   0  0  0  0  0  0  0  0  0  0  0  0
   26.2734   35.4740  101.2929 C   0  0  0  0  0  0  0  0  0  0  0  0
   29.8674   33.4019  102.5857 C   0  0  0  0  0  0  0  0  0  0  0  0
   23.0274   34.0201  106.2223 C   0  0  0  0  0  0  0  0  0  0  0  0
   33.1481   33.8503  104.6504 O   0  0  0  0  0  0  0  0  0  0  0  0
   24.0303   35.6904  100.1343 C   0  0  0  0  0  0  0  0  0  0  0  0
   29.7291   37.1181  103.4943 O   0  0  0  0  0  0  0  0  0  0  0  0
   25.0231   33.0282  105.1093 C   0  0  0  0  0  0  0  0  0  0  0  0
   22.1525   33.2319  105.2866 C   0  0  0  0  0  0  0  0  0  0  0  0
   24.7406   34.6486  108.3324 O   0  0  0  0  0  0  0  0  0  0  0  0
   25.3828   36.3267  100.4639 C   0  0  0  0  0  0  0  0  0  0  0  0
   26.2927   32.6661  105.1864 O   0  0  0  0  0  0  0  0  0  0  0  0
   25.6936   35.4097  102.6332 C   0  0  0  0  0  0  0  0  0  0  0  0
   24.1867   32.0415  104.3412 C   0  0  0  0  0  0  0  0  0  0  0  0
   27.3882   33.5757  103.1567 C   0  0  0  0  0  0  0  0  0  0  0  0
   25.2186   33.8584  107.4594 C   0  0  0  0  0  0  0  0  0  0  0  0
  1 14  1  0
  1 26  1  0
  2 31  2  0
  3 11  1  0
  3 22  1  0
  4 15  1  0
  4 21  1  0
  4 33  1  0
  5 13  1  0
  6 29  1  0
  7 12  1  0
  7 13  1  0
  7 25  1  0
  8 27  1  0
  8 32  1  0
  9 24  1  0
 10 22  1  0
 10 26  1  0
 10 34  1  0
 12 14  1  0
 13 16  1  0
 14 31  1  0
 14 33  1  0
 16 18  1  0
 16 19  1  0
 16 21  1  0
 17 34  2  0
 19 23  1  0
 20 29  1  0
 20 31  1  0
 22 27  1  0
 24 29  1  0
 26 30  1  0
 26 32  1  0
 28 34  1  0
M  END
>  <ID>  (1) 
conformer_0

$$$$
