
     RDKit          3D

 21 22  0  0  0  0  0  0  0  0999 V2000
   24.6188   35.4501  101.7150 C   0  0  0  0  0  0  0  0  0  0  0  0
   25.0488   34.8686  104.0853 C   0  0  0  0  0  0  0  0  0  0  0  0
   25.5622   35.2304  102.7951 C   0  0  0  0  0  0  0  0  0  0  0  0
   30.0405   34.3838  105.0959 O   0  0  0  0  0  0  0  0  0  0  0  0
   25.4545   34.3601  106.5941 C   0  0  0  0  0  0  0  0  0  0  0  0
   33.0644   33.9406  104.6852 O   0  0  0  0  0  0  0  0  0  0  0  0
   29.3250   34.7035  103.8638 C   0  0  0  0  0  0  0  0  0  0  0  0
   31.5306   33.8883  105.0072 C   0  0  0  0  0  0  0  0  0  0  0  0
   27.8772   34.9006  103.8073 C   0  0  0  0  0  0  0  0  0  0  0  0
   31.3021   34.2814  102.6668 C   0  0  0  0  0  0  0  0  0  0  0  0
   26.7117   33.8817  107.3555 O   0  0  0  0  0  0  0  0  0  0  0  0
   25.8856   34.6313  105.1983 C   0  0  0  0  0  0  0  0  0  0  0  0
   30.4318   36.7234  103.6261 O   0  0  0  0  0  0  0  0  0  0  0  0
   24.8353   36.4467  100.6515 C   0  0  0  0  0  0  0  0  0  0  0  0
   25.6544   37.4041  100.8329 O   0  0  0  0  0  0  0  0  0  0  0  0
   27.0083   35.2433  102.7056 C   0  0  0  0  0  0  0  0  0  0  0  0
   32.4091   33.9889  101.9251 O   0  0  0  0  0  0  0  0  0  0  0  0
   30.3649   35.4046  103.0457 C   0  0  0  0  0  0  0  0  0  0  0  0
   27.2331   34.6504  104.9931 C   0  0  0  0  0  0  0  0  0  0  0  0
   23.9581   36.3727   99.6972 O   0  0  0  0  0  0  0  0  0  0  0  0
   31.2195   33.0680  103.6800 C   0  0  0  0  0  0  0  0  0  0  0  0
  1  3  1  0
  1 14  1  0
  2  3  2  0
  2 12  1  0
  3 16  1  0
  4  7  1  0
  4  8  1  0
  5 11  1  0
  5 12  1  0
  6  8  1  0
  7  9  1  0
  7 18  1  0
  8 21  1  0
  9 16  2  0
  9 19  1  0
 10 17  1  0
 10 18  1  0
 10 21  1  0
 12 19  2  0
 13 18  1  0
 14 15  2  0
 14 20  1  0
M  END
>  <ID>  (1) 
conformer_0

$$$$
