
     RDKit          3D

 43 45  0  0  0  0  0  0  0  0999 V2000
   19.7458   32.3476  108.6962 C   0  0  0  0  0  0  0  0  0  0  0  0
   30.7296   36.7451  103.7355 O   0  0  0  0  0  0  0  0  0  0  0  0
   23.8059   34.4392  109.4876 O   0  0  0  0  0  0  0  0  0  0  0  0
   23.6998   35.8722  100.0133 C   0  0  0  0  0  0  0  0  0  0  0  0
   27.3544   33.5059  103.1489 C   0  0  0  0  0  0  0  0  0  0  0  0
   23.8866   33.1145  105.2289 O   0  0  0  0  0  0  0  0  0  0  0  0
   22.2133   34.8715  107.1480 C   0  0  0  0  0  0  0  0  0  0  0  0
   24.9982   34.3506  103.2665 C   0  0  0  0  0  0  0  0  0  0  0  0
   25.8708   36.1948  101.7375 C   0  0  0  0  0  0  0  0  0  0  0  0
   27.9455   31.1099  102.5605 C   0  0  0  0  0  0  0  0  0  0  0  0
   25.3716   33.5997  108.1857 O   0  0  0  0  0  0  0  0  0  0  0  0
   29.2061   34.9805  103.8705 C   0  0  0  0  0  0  0  0  0  0  0  0
   24.2961   34.1852  108.3051 C   0  0  0  0  0  0  0  0  0  0  0  0
   26.7868   30.9989  103.1442 O   0  0  0  0  0  0  0  0  0  0  0  0
   25.6517   37.0009  100.6828 C   0  0  0  0  0  0  0  0  0  0  0  0
   21.0129   34.0802  107.5000 C   0  0  0  0  0  0  0  0  0  0  0  0
   23.7883   35.0720  101.2121 C   0  0  0  0  0  0  0  0  0  0  0  0
   28.5295   30.3887  100.2938 C   0  0  0  0  0  0  0  0  0  0  0  0
   31.6423   34.5877  103.8488 C   0  0  0  0  0  0  0  0  0  0  0  0
   28.1702   28.8759  102.1254 F   0  0  0  0  0  0  0  0  0  0  0  0
   24.3571   34.4693  105.8604 C   0  0  0  0  0  0  0  0  0  0  0  0
   26.3739   34.2704  104.0232 C   0  0  0  0  0  0  0  0  0  0  0  0
   25.8732   34.7792  105.4882 C   0  0  0  0  0  0  0  0  0  0  0  0
   28.7260   30.2640  101.8065 C   0  0  0  0  0  0  0  0  0  0  0  0
   30.4089   30.1007  102.6964 F   0  0  0  0  0  0  0  0  0  0  0  0
   18.5935   32.6180  107.9278 C   0  0  0  0  0  0  0  0  0  0  0  0
   24.9147   35.2301  102.0414 C   0  0  0  0  0  0  0  0  0  0  0  0
   30.2330   33.1430  105.5968 O   0  0  0  0  0  0  0  0  0  0  0  0
   32.9286   33.2780  104.9398 C   0  0  0  0  0  0  0  0  0  0  0  0
   19.8180   34.3971  106.7950 C   0  0  0  0  0  0  0  0  0  0  0  0
   32.2541   32.0026  103.2426 C   0  0  0  0  0  0  0  0  0  0  0  0
   29.4520   32.2943  103.4403 C   0  0  0  0  0  0  0  0  0  0  0  0
   20.9202   33.0832  108.4607 C   0  0  0  0  0  0  0  0  0  0  0  0
   30.3316   32.3743  104.3588 C   0  0  0  0  0  0  0  0  0  0  0  0
   23.6612   34.6730  107.0831 C   0  0  0  0  0  0  0  0  0  0  0  0
   28.3411   36.1154  104.1280 O   0  0  0  0  0  0  0  0  0  0  0  0
   30.3700   32.1587  101.2971 F   0  0  0  0  0  0  0  0  0  0  0  0
   31.7878   33.2878  103.8753 C   0  0  0  0  0  0  0  0  0  0  0  0
   29.5625   31.3414  102.5211 C   0  0  0  0  0  0  0  0  0  0  0  0
   28.7223   33.6275  103.4402 C   0  0  0  0  0  0  0  0  0  0  0  0
   30.6180   35.4689  103.8554 C   0  0  0  0  0  0  0  0  0  0  0  0
   18.6545   33.6276  106.9642 C   0  0  0  0  0  0  0  0  0  0  0  0
   24.5135   36.8976   99.7931 N   0  0  0  0  0  0  0  0  0  0  0  0
  1 26  1  0
  1 33  1  0
  2 41  1  0
  3 13  2  0
  4 17  2  0
  4 43  1  0
  5 22  1  0
  5 40  1  0
  6 21  1  0
  7 16  1  0
  7 35  1  0
  8 22  1  0
  8 27  1  0
  9 15  1  0
  9 27  2  0
 10 14  1  0
 10 24  1  0
 11 13  1  0
 12 36  1  0
 12 40  1  0
 12 41  1  0
 13 35  1  0
 15 43  2  0
 16 30  1  0
 16 33  2  0
 17 27  1  0
 18 24  1  0
 19 38  1  0
 19 41  2  0
 20 24  1  0
 21 23  1  0
 21 35  1  0
 22 23  1  0
 24 39  1  0
 25 39  1  0
 26 42  2  0
 28 34  1  0
 29 38  1  0
 30 42  1  0
 31 38  1  0
 32 34  1  0
 32 39  1  0
 32 40  1  0
 34 38  1  0
 37 39  1  0
M  END
>  <ID>  (1) 
conformer_0

$$$$
