
     RDKit          3D

 35 39  0  0  0  0  0  0  0  0999 V2000
   22.9869   34.0138  107.8417 C   0  0  0  0  0  0  0  0  0  0  0  0
   21.4581   34.3737  107.5999 C   0  0  0  0  0  0  0  0  0  0  0  0
   26.1528   35.9653  101.8542 N   0  0  0  0  0  0  0  0  0  0  0  0
   23.7103   34.5217  106.8533 O   0  0  0  0  0  0  0  0  0  0  0  0
   26.3876   36.4160  100.6724 C   0  0  0  0  0  0  0  0  0  0  0  0
   26.5117   35.6032  103.0054 C   0  0  0  0  0  0  0  0  0  0  0  0
   29.3050   32.7793  102.4957 C   0  0  0  0  0  0  0  0  0  0  0  0
   24.0097   35.4483  101.6577 C   0  0  0  0  0  0  0  0  0  0  0  0
   24.1260   36.0046  100.3436 C   0  0  0  0  0  0  0  0  0  0  0  0
   30.4072   36.2823  104.0213 O   0  0  0  0  0  0  0  0  0  0  0  0
   29.8871   35.1975  104.5405 C   0  0  0  0  0  0  0  0  0  0  0  0
   19.7174   34.4430  105.7263 C   0  0  0  0  0  0  0  0  0  0  0  0
   30.7792   32.5922  102.2994 C   0  0  0  0  0  0  0  0  0  0  0  0
   20.6808   33.2125  108.1172 N   0  0  0  0  0  0  0  0  0  0  0  0
   18.7078   34.0431  106.8040 C   0  0  0  0  0  0  0  0  0  0  0  0
   28.6277   33.3177  103.6347 C   0  0  0  0  0  0  0  0  0  0  0  0
   28.0158   35.6379  102.9596 C   0  0  0  0  0  0  0  0  0  0  0  0
   25.1881   35.4688  102.3692 C   0  0  0  0  0  0  0  0  0  0  0  0
   28.5280   34.7913  104.1135 C   0  0  0  0  0  0  0  0  0  0  0  0
   27.4771   34.8611  105.1070 C   0  0  0  0  0  0  0  0  0  0  0  0
   25.0670   35.0739  104.9738 C   0  0  0  0  0  0  0  0  0  0  0  0
   26.0961   34.3293  106.9545 C   0  0  0  0  0  0  0  0  0  0  0  0
   25.9687   33.7376  108.1255 O   0  0  0  0  0  0  0  0  0  0  0  0
   32.0831   34.7222  105.1842 C   0  0  0  0  0  0  0  0  0  0  0  0
   27.4074   34.5537  106.4562 C   0  0  0  0  0  0  0  0  0  0  0  0
   26.2850   35.1733  104.4035 C   0  0  0  0  0  0  0  0  0  0  0  0
   25.2934   36.5282   99.8629 N   0  0  0  0  0  0  0  0  0  0  0  0
   31.5296   33.8588  102.6537 C   0  0  0  0  0  0  0  0  0  0  0  0
   23.0676   36.0709   99.5738 N   0  0  0  0  0  0  0  0  0  0  0  0
   30.7629   34.1055  105.0533 C   0  0  0  0  0  0  0  0  0  0  0  0
   31.9042   33.8679  104.0660 C   0  0  0  0  0  0  0  0  0  0  0  0
   19.2851   32.8819  107.6604 C   0  0  0  0  0  0  0  0  0  0  0  0
   24.9447   34.6388  106.2599 C   0  0  0  0  0  0  0  0  0  0  0  0
   21.2449   34.3794  106.0250 C   0  0  0  0  0  0  0  0  0  0  0  0
   32.5437   33.9642  101.7132 O   0  0  0  0  0  0  0  0  0  0  0  0
  1  2  1  0
  1  4  1  0
  2 14  1  0
  2 34  1  0
  3  5  1  0
  3  6  1  0
  3 18  1  0
  4 33  1  0
  5 27  2  0
  6 17  1  0
  6 26  2  0
  7 13  1  0
  7 16  1  0
  8  9  1  0
  8 18  1  0
  9 27  1  0
  9 29  2  0
 10 11  1  0
 11 19  1  0
 11 30  1  0
 12 15  1  0
 12 34  1  0
 13 28  1  0
 14 32  1  0
 15 32  1  0
 16 19  1  0
 17 19  1  0
 19 20  1  0
 20 25  1  0
 20 26  1  0
 21 26  1  0
 21 33  1  0
 22 23  1  0
 22 25  1  0
 22 33  2  0
 24 30  1  0
 24 31  1  0
 28 31  1  0
 28 35  1  0
M  END
>  <ID>  (1) 
conformer_0

$$$$
