
     RDKit          3D

 30 31  0  0  0  0  0  0  0  0999 V2000
   32.2086   33.9767  102.2258 O   0  0  0  0  0  0  0  0  0  0  0  0
   24.7587   37.5070  100.9834 F   0  0  0  0  0  0  0  0  0  0  0  0
   24.6311   34.1547  103.3604 C   0  0  0  0  0  0  0  0  0  0  0  0
   26.6744   34.4194  104.6084 C   0  0  0  0  0  0  0  0  0  0  0  0
   26.1333   33.8899  107.8515 O   0  0  0  0  0  0  0  0  0  0  0  0
   30.5301   36.8378  103.7093 O   0  0  0  0  0  0  0  0  0  0  0  0
   29.1846   32.5960  102.6953 F   0  0  0  0  0  0  0  0  0  0  0  0
   24.8928   34.0192  107.8782 C   0  0  0  0  0  0  0  0  0  0  0  0
   24.0334   34.5782  108.8009 N   0  0  0  0  0  0  0  0  0  0  0  0
   26.4353   35.4535  102.4414 C   0  0  0  0  0  0  0  0  0  0  0  0
   25.7003   35.5578   99.4867 F   0  0  0  0  0  0  0  0  0  0  0  0
   25.2056   34.8866  102.3835 C   0  0  0  0  0  0  0  0  0  0  0  0
   24.0792   33.7799  106.7052 C   0  0  0  0  0  0  0  0  0  0  0  0
   24.7262   33.3354  105.6139 N   0  0  0  0  0  0  0  0  0  0  0  0
   22.6936   33.7215  107.1074 C   0  0  0  0  0  0  0  0  0  0  0  0
   25.3453   33.9861  104.5456 C   0  0  0  0  0  0  0  0  0  0  0  0
   29.5039   34.2302  104.6611 C   0  0  0  0  0  0  0  0  0  0  0  0
   22.6385   34.4953  108.4198 C   0  0  0  0  0  0  0  0  0  0  0  0
   30.9464   34.4360  104.3313 C   0  0  0  0  0  0  0  0  0  0  0  0
   23.6709   36.0464   99.8813 F   0  0  0  0  0  0  0  0  0  0  0  0
   28.5258   37.4331  103.2186 O   0  0  0  0  0  0  0  0  0  0  0  0
   27.3360   35.0769  103.5947 C   0  0  0  0  0  0  0  0  0  0  0  0
   30.5947   32.5332  102.9947 C   0  0  0  0  0  0  0  0  0  0  0  0
   29.3494   36.5007  103.5780 C   0  0  0  0  0  0  0  0  0  0  0  0
   31.2116   33.9236  103.0371 C   0  0  0  0  0  0  0  0  0  0  0  0
   31.8288   34.4585  105.4716 C   0  0  0  0  0  0  0  0  0  0  0  0
   26.7872   36.3769  101.3846 C   0  0  0  0  0  0  0  0  0  0  0  0
   29.2415   34.0067  106.1586 C   0  0  0  0  0  0  0  0  0  0  0  0
   25.1872   36.4171  100.3970 C   0  0  0  0  0  0  0  0  0  0  0  0
   28.8063   35.1703  103.7720 C   0  0  0  0  0  0  0  0  0  0  0  0
  1 25  1  0
  2 29  1  0
  3 12  2  0
  3 16  1  0
  4 16  1  0
  4 22  2  0
  5  8  2  0
  6 24  2  0
  7 23  1  0
  8  9  1  0
  8 13  1  0
  9 18  1  0
 10 12  1  0
 10 22  1  0
 10 27  1  0
 11 29  1  0
 13 14  1  0
 13 15  1  0
 14 16  1  0
 15 18  1  0
 17 19  1  0
 17 28  1  0
 17 30  1  0
 19 25  1  0
 19 26  1  0
 20 29  1  0
 21 24  1  0
 22 30  1  0
 23 25  1  0
 24 30  1  0
 27 29  1  0
M  END
>  <ID>  (1) 
conformer_0

$$$$
