
     RDKit          3D

 31 32  0  0  0  0  0  0  0  0999 V2000
   21.7141   31.3129  106.6532 O   0  0  0  0  0  0  0  0  0  0  0  0
   29.1271   37.2806  103.6280 O   0  0  0  0  0  0  0  0  0  0  0  0
   23.6690   33.0127  105.3718 C   0  0  0  0  0  0  0  0  0  0  0  0
   24.7099   33.8509  107.4128 C   0  0  0  0  0  0  0  0  0  0  0  0
   23.5953   35.0805  101.5416 C   0  0  0  0  0  0  0  0  0  0  0  0
   24.8034   34.4209  103.6544 C   0  0  0  0  0  0  0  0  0  0  0  0
   25.7546   33.1598  107.7303 O   0  0  0  0  0  0  0  0  0  0  0  0
   30.6818   35.0652  103.9716 C   0  0  0  0  0  0  0  0  0  0  0  0
   31.3740   33.7324  103.9675 C   0  0  0  0  0  0  0  0  0  0  0  0
   28.3777   33.9960  104.2524 C   0  0  0  0  0  0  0  0  0  0  0  0
   32.0691   33.5387  101.7757 C   0  0  0  0  0  0  0  0  0  0  0  0
   23.7542   34.4524  102.7411 C   0  0  0  0  0  0  0  0  0  0  0  0
   24.3387   34.7224  108.3581 O   0  0  0  0  0  0  0  0  0  0  0  0
   24.6777   33.8576  104.9385 N   0  0  0  0  0  0  0  0  0  0  0  0
   26.1486   34.9521  103.5159 C   0  0  0  0  0  0  0  0  0  0  0  0
   25.8735   36.0994  101.3196 C   0  0  0  0  0  0  0  0  0  0  0  0
   31.4693   36.1146  104.1288 N   0  0  0  0  0  0  0  0  0  0  0  0
   29.3742   35.0241  103.9792 N   0  0  0  0  0  0  0  0  0  0  0  0
   24.2187   36.5154   99.7703 C   0  0  0  0  0  0  0  0  0  0  0  0
   31.3158   33.1050  102.7936 N   0  0  0  0  0  0  0  0  0  0  0  0
   30.1423   32.4198  102.3496 C   0  0  0  0  0  0  0  0  0  0  0  0
   27.1427   34.6291  104.5783 C   0  0  0  0  0  0  0  0  0  0  0  0
   26.4933   35.7096  102.4095 C   0  0  0  0  0  0  0  0  0  0  0  0
   22.9180   32.4753  104.5334 O   0  0  0  0  0  0  0  0  0  0  0  0
   23.0047   36.6614   99.2739 O   0  0  0  0  0  0  0  0  0  0  0  0
   32.5096   33.6531  104.8161 C   0  0  0  0  0  0  0  0  0  0  0  0
   21.9502   32.7037  107.1195 C   0  0  0  0  0  0  0  0  0  0  0  0
   24.5709   35.8720  100.9210 C   0  0  0  0  0  0  0  0  0  0  0  0
   28.8469   36.2141  103.8726 C   0  0  0  0  0  0  0  0  0  0  0  0
   25.1987   34.5956  106.1043 C   0  0  0  0  0  0  0  0  0  0  0  0
   23.4725   33.0438  106.9187 C   0  0  0  0  0  0  0  0  0  0  0  0
  1 27  1  0
  2 29  2  0
  3 14  1  0
  3 24  2  0
  3 31  1  0
  4  7  1  0
  4 13  1  0
  4 30  1  0
  4 31  1  0
  5 12  2  0
  5 28  1  0
  6 12  1  0
  6 14  1  0
  6 15  2  0
  8  9  1  0
  8 17  2  0
  8 18  1  0
  9 20  1  0
  9 26  1  0
 10 18  1  0
 10 22  1  0
 11 20  1  0
 14 30  1  0
 15 22  1  0
 15 23  1  0
 16 23  2  0
 16 28  1  0
 18 29  1  0
 19 25  1  0
 19 28  2  3
 20 21  1  0
 27 31  1  0
M  END
>  <ID>  (1) 
conformer_0

$$$$
