
     RDKit          3D

 27 29  0  0  0  0  0  0  0  0999 V2000
   31.5625   33.9462  104.4631 C   0  0  0  0  0  0  0  0  0  0  0  0
   27.0768   35.7448  103.0960 C   0  0  0  0  0  0  0  0  0  0  0  0
   29.7250   33.0807  102.9191 C   0  0  0  0  0  0  0  0  0  0  0  0
   23.7038   35.8704  105.4047 O   0  0  0  0  0  0  0  0  0  0  0  0
   32.0885   33.7303  102.0977 O   0  0  0  0  0  0  0  0  0  0  0  0
   27.7842   35.1013  104.3457 C   0  0  0  0  0  0  0  0  0  0  0  0
   25.5537   35.5587  103.2115 C   0  0  0  0  0  0  0  0  0  0  0  0
   31.1651   33.4767  103.0747 C   0  0  0  0  0  0  0  0  0  0  0  0
   25.8448   37.0712  100.7505 N   0  0  0  0  0  0  0  0  0  0  0  0
   23.8556   36.1687   99.9561 F   0  0  0  0  0  0  0  0  0  0  0  0
   25.8435   33.7741  107.4779 C   0  0  0  0  0  0  0  0  0  0  0  0
   29.8732   35.8234  103.2146 C   0  0  0  0  0  0  0  0  0  0  0  0
   23.8230   33.5206  106.0830 C   0  0  0  0  0  0  0  0  0  0  0  0
   24.7997   36.1920  100.9184 C   0  0  0  0  0  0  0  0  0  0  0  0
   28.6481   33.7495  103.8673 C   0  0  0  0  0  0  0  0  0  0  0  0
   26.5836   34.6818  105.2048 C   0  0  0  0  0  0  0  0  0  0  0  0
   25.4743   33.1123  103.5392 C   0  0  0  0  0  0  0  0  0  0  0  0
   32.8501   33.8668  104.7974 O   0  0  0  0  0  0  0  0  0  0  0  0
   28.1643   34.5799  107.1942 C   0  0  0  0  0  0  0  0  0  0  0  0
   24.4072   34.0574  107.4214 C   0  0  0  0  0  0  0  0  0  0  0  0
   29.2782   34.9870  104.3022 C   0  0  0  0  0  0  0  0  0  0  0  0
   24.0644   34.5885  104.9857 C   0  0  0  0  0  0  0  0  0  0  0  0
   24.6688   35.4716  102.1000 O   0  0  0  0  0  0  0  0  0  0  0  0
   29.8536   37.1351  103.5141 O   0  0  0  0  0  0  0  0  0  0  0  0
   25.3851   34.4768  104.2691 C   0  0  0  0  0  0  0  0  0  0  0  0
   26.6979   34.7976  106.7012 C   0  0  0  0  0  0  0  0  0  0  0  0
   30.4624   34.6460  105.1795 C   0  0  0  0  0  0  0  0  0  0  0  0
  1  8  1  0
  1 18  1  0
  1 27  1  0
  2  6  1  0
  2  7  1  0
  3  8  1  0
  3 15  1  0
  4 22  1  0
  5  8  1  0
  6 16  1  0
  6 21  1  0
  7 23  1  0
  7 25  1  0
  9 14  1  0
 10 14  1  0
 11 20  1  0
 11 26  1  0
 12 21  1  0
 12 24  1  0
 13 20  1  0
 13 22  1  0
 14 23  1  0
 15 21  1  0
 16 25  1  0
 16 26  1  0
 17 25  1  0
 19 26  1  0
 21 27  1  0
 22 25  1  0
M  END
>  <ID>  (1) 
conformer_0

$$$$
