
     RDKit          3D

 22 23  0  0  0  0  0  0  0  0999 V2000
   29.1051   34.6300  103.9492 C   0  0  0  0  0  0  0  0  0  0  0  0
   27.6507   34.9311  103.2780 C   0  0  0  0  0  0  0  0  0  0  0  0
   24.7288   34.0917  104.5341 C   0  0  0  0  0  0  0  0  0  0  0  0
   24.8761   35.1645  102.1562 C   0  0  0  0  0  0  0  0  0  0  0  0
   25.3919   37.0104  100.6124 C   0  0  0  0  0  0  0  0  0  0  0  0
   26.0275   35.9045  101.3885 C   0  0  0  0  0  0  0  0  0  0  0  0
   30.9019   33.5871  105.3885 C   0  0  0  0  0  0  0  0  0  0  0  0
   26.1320   34.0110  107.8327 C   0  0  0  0  0  0  0  0  0  0  0  0
   25.7286   34.0129  105.5923 O   0  0  0  0  0  0  0  0  0  0  0  0
   31.3771   35.4946  103.8177 O   0  0  0  0  0  0  0  0  0  0  0  0
   30.0222   35.8426  103.6705 C   0  0  0  0  0  0  0  0  0  0  0  0
   32.2469   33.7876  101.8974 O   0  0  0  0  0  0  0  0  0  0  0  0
   29.6167   36.9776  103.5464 O   0  0  0  0  0  0  0  0  0  0  0  0
   29.5025   34.2331  105.4349 C   0  0  0  0  0  0  0  0  0  0  0  0
   27.1691   36.0892  102.3251 C   0  0  0  0  0  0  0  0  0  0  0  0
   31.7430   34.1070  104.2174 C   0  0  0  0  0  0  0  0  0  0  0  0
   24.1389   34.8170  106.9607 O   0  0  0  0  0  0  0  0  0  0  0  0
   29.6392   33.3312  103.1049 C   0  0  0  0  0  0  0  0  0  0  0  0
   25.2789   34.3024  106.8762 C   0  0  0  0  0  0  0  0  0  0  0  0
   31.2742   33.2342  102.9868 C   0  0  0  0  0  0  0  0  0  0  0  0
   24.9225   35.3321  103.7006 C   0  0  0  0  0  0  0  0  0  0  0  0
   24.6866   32.7809  103.7299 C   0  0  0  0  0  0  0  0  0  0  0  0
  1  2  1  0
  1 11  1  0
  1 14  1  0
  1 18  1  0
  2 15  1  0
  3  9  1  0
  3 21  1  0
  3 22  1  0
  4  6  1  0
  4 21  1  0
  5  6  1  0
  6 15  1  0
  7 14  1  0
  7 16  1  0
  8 19  1  0
  9 19  1  0
 10 11  1  0
 10 16  1  0
 11 13  2  0
 12 20  1  0
 16 20  1  0
 17 19  2  0
 18 20  1  0
M  END
>  <ID>  (1) 
conformer_0

$$$$
