
     RDKit          3D

 23 24  0  0  0  0  0  0  0  0999 V2000
   25.3276   35.6075  102.0395 C   0  0  0  0  0  0  0  0  0  0  0  0
   28.6370   35.2546  103.7190 C   0  0  0  0  0  0  0  0  0  0  0  0
   22.5755   34.4962  106.0394 O   0  0  0  0  0  0  0  0  0  0  0  0
   27.2289   35.0835  103.4085 C   0  0  0  0  0  0  0  0  0  0  0  0
   24.5452   34.7991  102.8559 C   0  0  0  0  0  0  0  0  0  0  0  0
   25.6879   34.7047  107.8399 O   0  0  0  0  0  0  0  0  0  0  0  0
   29.0027   36.5613  103.5166 N   0  0  0  0  0  0  0  0  0  0  0  0
   31.6074   33.5017  103.0752 C   0  0  0  0  0  0  0  0  0  0  0  0
   31.3570   32.3188  103.2025 O   0  0  0  0  0  0  0  0  0  0  0  0
   25.1112   34.2004  104.0426 C   0  0  0  0  0  0  0  0  0  0  0  0
   29.5015   34.2874  104.1394 C   0  0  0  0  0  0  0  0  0  0  0  0
   24.6518   33.7588  107.4487 C   0  0  0  0  0  0  0  0  0  0  0  0
   24.3674   33.5016  105.0237 N   0  0  0  0  0  0  0  0  0  0  0  0
   30.9114   34.5303  104.1031 C   0  0  0  0  0  0  0  0  0  0  0  0
   30.2230   36.8472  103.6310 C   0  0  0  0  0  0  0  0  0  0  0  0
   26.4502   34.3045  104.2121 C   0  0  0  0  0  0  0  0  0  0  0  0
   31.1466   35.9232  103.7725 N   0  0  0  0  0  0  0  0  0  0  0  0
   31.7332   34.1695  105.4007 C   0  0  0  0  0  0  0  0  0  0  0  0
   23.9350   34.1735  106.1877 C   0  0  0  0  0  0  0  0  0  0  0  0
   33.2122   33.9130  105.1074 N   0  0  0  0  0  0  0  0  0  0  0  0
   24.7005   36.3778  100.7852 C   0  0  0  0  0  0  0  0  0  0  0  0
   32.2713   33.9345  102.0502 O   0  0  0  0  0  0  0  0  0  0  0  0
   26.6778   35.8066  102.2896 C   0  0  0  0  0  0  0  0  0  0  0  0
  1  5  2  0
  1 21  1  0
  1 23  1  0
  2  4  1  0
  2  7  1  0
  2 11  2  0
  3 19  2  0
  4 16  1  0
  4 23  2  0
  5 10  1  0
  6 12  1  0
  7 15  2  0
  8  9  2  0
  8 14  1  0
  8 22  1  0
 10 13  1  0
 10 16  2  0
 11 14  1  0
 12 19  1  0
 13 19  1  0
 14 17  1  0
 14 18  1  0
 15 17  1  0
 18 20  1  0
M  END
>  <ID>  (1) 
conformer_0

$$$$
