
     RDKit          3D

 30 32  0  0  0  0  0  0  0  0999 V2000
   29.8524   36.2852  103.6024 N   0  0  0  0  0  0  0  0  0  0  0  0
   24.5912   33.8624  107.1169 C   0  0  0  0  0  0  0  0  0  0  0  0
   23.9585   34.6819  102.2031 C   0  0  0  0  0  0  0  0  0  0  0  0
   31.7398   34.4002  106.0650 C   0  0  0  0  0  0  0  0  0  0  0  0
   24.8389   33.6534  104.5712 N   0  0  0  0  0  0  0  0  0  0  0  0
   30.8211   33.0008  102.3326 O   0  0  0  0  0  0  0  0  0  0  0  0
   25.6200   34.7328  104.1070 C   0  0  0  0  0  0  0  0  0  0  0  0
   31.5781   34.7688  104.6895 C   0  0  0  0  0  0  0  0  0  0  0  0
   29.1203   34.4862  104.6359 C   0  0  0  0  0  0  0  0  0  0  0  0
   28.4989   36.3699  103.6482 O   0  0  0  0  0  0  0  0  0  0  0  0
   26.0395   35.9727  101.9381 C   0  0  0  0  0  0  0  0  0  0  0  0
   22.3822   33.3418  108.0172 C   0  0  0  0  0  0  0  0  0  0  0  0
   23.4667   35.2196  101.0636 C   0  0  0  0  0  0  0  0  0  0  0  0
   28.0521   35.2058  104.2998 C   0  0  0  0  0  0  0  0  0  0  0  0
   25.8851   34.1794  107.4272 O   0  0  0  0  0  0  0  0  0  0  0  0
   25.8692   35.7126  105.2054 C   0  0  0  0  0  0  0  0  0  0  0  0
   25.2691   35.1186  102.7180 C   0  0  0  0  0  0  0  0  0  0  0  0
   24.0114   34.4058  109.3822 O   0  0  0  0  0  0  0  0  0  0  0  0
   26.7911   34.8600  104.6607 N   0  0  0  0  0  0  0  0  0  0  0  0
   24.2308   36.1593  100.3380 C   0  0  0  0  0  0  0  0  0  0  0  0
   22.9187   32.8611  105.6943 C   0  0  0  0  0  0  0  0  0  0  0  0
   25.5461   36.5257  100.7694 C   0  0  0  0  0  0  0  0  0  0  0  0
   31.8847   33.6565  102.5148 C   0  0  0  0  0  0  0  0  0  0  0  0
   24.1689   33.4830  105.8115 C   0  0  0  0  0  0  0  0  0  0  0  0
   32.2901   34.0718  103.7668 N   0  0  0  0  0  0  0  0  0  0  0  0
   32.6980   34.0229  101.4550 N   0  0  0  0  0  0  0  0  0  0  0  0
   30.2508   35.1376  104.2857 C   0  0  0  0  0  0  0  0  0  0  0  0
   22.0211   32.8199  106.7673 C   0  0  0  0  0  0  0  0  0  0  0  0
   23.6633   33.8631  108.1811 C   0  0  0  0  0  0  0  0  0  0  0  0
   23.7111   36.7037   99.3043 F   0  0  0  0  0  0  0  0  0  0  0  0
  1 10  1  0
  1 27  1  0
  2 15  1  0
  2 24  1  0
  2 29  1  0
  3 13  2  0
  3 17  1  0
  4  8  1  0
  5  7  2  3
  5 24  1  0
  6 23  2  0
  7 17  1  0
  7 19  1  0
  8 25  1  0
  8 27  1  0
  9 14  1  0
  9 27  1  0
 10 14  1  0
 11 17  2  0
 11 22  1  0
 12 28  1  0
 12 29  2  0
 13 20  1  0
 14 19  1  0
 16 19  1  0
 18 29  1  0
 20 22  2  0
 20 30  1  0
 21 24  1  0
 21 28  2  0
 23 25  1  0
 23 26  1  0
M  END
>  <ID>  (1) 
conformer_0

$$$$
