
     RDKit          3D

 31 33  0  0  0  0  0  0  0  0999 V2000
   23.1004   34.5982  107.4984 C   0  0  0  0  0  0  0  0  0  0  0  0
   26.0057   35.7469   99.4448 C   0  0  0  0  0  0  0  0  0  0  0  0
   24.9053   34.1305  104.4836 C   0  0  0  0  0  0  0  0  0  0  0  0
   23.6473   32.4049  106.0020 N   0  0  0  0  0  0  0  0  0  0  0  0
   24.6052   34.5248  106.9058 C   0  0  0  0  0  0  0  0  0  0  0  0
   26.3135   35.7181  102.6065 N   0  0  0  0  0  0  0  0  0  0  0  0
   27.1845   35.9389   97.3183 O   0  0  0  0  0  0  0  0  0  0  0  0
   24.1870   34.6806  103.3000 C   0  0  0  0  0  0  0  0  0  0  0  0
   32.0982   33.1178  102.3905 O   0  0  0  0  0  0  0  0  0  0  0  0
   26.2319   36.4392  106.8729 C   0  0  0  0  0  0  0  0  0  0  0  0
   26.3205   35.3903   98.1693 C   0  0  0  0  0  0  0  0  0  0  0  0
   24.3767   33.5535  105.7388 C   0  0  0  0  0  0  0  0  0  0  0  0
   26.1121   34.8971  104.9024 C   0  0  0  0  0  0  0  0  0  0  0  0
   29.8535   33.1620  102.8882 C   0  0  0  0  0  0  0  0  0  0  0  0
   26.9513   35.3390  103.7880 C   0  0  0  0  0  0  0  0  0  0  0  0
   22.3204   35.5584  105.2975 C   0  0  0  0  0  0  0  0  0  0  0  0
   28.7865   37.1561  103.8985 O   0  0  0  0  0  0  0  0  0  0  0  0
   30.6003   35.8616  103.8873 C   0  0  0  0  0  0  0  0  0  0  0  0
   24.4689   31.1153  104.3065 O   0  0  0  0  0  0  0  0  0  0  0  0
   25.2466   34.2678  108.1569 O   0  0  0  0  0  0  0  0  0  0  0  0
   28.6535   33.6657  103.2017 C   0  0  0  0  0  0  0  0  0  0  0  0
   22.0455   34.5744  106.4421 C   0  0  0  0  0  0  0  0  0  0  0  0
   31.4118   34.9899  103.4544 C   0  0  0  0  0  0  0  0  0  0  0  0
   29.2603   35.9824  103.7907 C   0  0  0  0  0  0  0  0  0  0  0  0
   24.3653   35.9699  101.1871 C   0  0  0  0  0  0  0  0  0  0  0  0
   24.9870   35.4850  102.4024 C   0  0  0  0  0  0  0  0  0  0  0  0
   31.0990   33.7712  102.9142 C   0  0  0  0  0  0  0  0  0  0  0  0
   24.9977   36.1620  100.0406 C   0  0  0  0  0  0  0  0  0  0  0  0
   25.8475   35.2320  106.2281 N   0  0  0  0  0  0  0  0  0  0  0  0
   28.3352   34.9220  103.5877 C   0  0  0  0  0  0  0  0  0  0  0  0
   23.7623   31.1787  105.4259 C   0  0  0  0  0  0  0  0  0  0  0  0
  1  5  1  0
  1 22  1  0
  2 11  1  0
  2 28  1  0
  3  8  1  0
  3 12  1  0
  3 13  1  0
  4 12  1  0
  4 31  2  3
  5 12  1  0
  5 20  1  0
  5 29  1  0
  6 15  1  0
  6 26  2  0
  7 11  1  0
  8 26  1  0
  9 27  1  0
 10 29  1  0
 13 15  1  0
 13 29  1  0
 14 21  1  0
 14 27  2  0
 15 30  1  0
 16 22  1  0
 17 24  2  0
 18 23  2  0
 18 24  1  0
 19 31  1  0
 21 30  2  0
 23 27  1  0
 24 30  1  0
 25 26  1  0
 25 28  1  0
M  END
>  <ID>  (1) 
conformer_0

$$$$
