
     RDKit          3D

 34 36  0  0  0  0  0  0  0  0999 V2000
   25.7623   35.7333  101.9070 C   0  0  0  0  0  0  0  0  0  0  0  0
   23.5660   35.0927  101.0404 C   0  0  0  0  0  0  0  0  0  0  0  0
   21.9712   33.7915  108.6250 C   0  0  0  0  0  0  0  0  0  0  0  0
   26.6251   34.4933  104.5346 C   0  0  0  0  0  0  0  0  0  0  0  0
   30.7269   32.6571  103.0605 C   0  0  0  0  0  0  0  0  0  0  0  0
   25.0056   34.1718  106.5364 C   0  0  0  0  0  0  0  0  0  0  0  0
   30.1671   37.3024  103.6402 O   0  0  0  0  0  0  0  0  0  0  0  0
   24.8688   36.8908  100.0472 C   0  0  0  0  0  0  0  0  0  0  0  0
   30.4918   31.7904  102.0192 O   0  0  0  0  0  0  0  0  0  0  0  0
   24.0663   34.5275  109.2969 O   0  0  0  0  0  0  0  0  0  0  0  0
   21.6076   35.2574  108.2862 C   0  0  0  0  0  0  0  0  0  0  0  0
   21.1298   35.0631  106.8747 C   0  0  0  0  0  0  0  0  0  0  0  0
   25.8930   36.7404  100.9586 C   0  0  0  0  0  0  0  0  0  0  0  0
   31.1683   35.0137  104.3715 C   0  0  0  0  0  0  0  0  0  0  0  0
   29.6319   33.4165  103.3877 C   0  0  0  0  0  0  0  0  0  0  0  0
   23.6123   34.4587  106.9239 N   0  0  0  0  0  0  0  0  0  0  0  0
   25.1673   34.5334  104.8899 S   0  0  0  0  0  4  0  0  0  0  0  0
   29.1354   36.6592  103.6548 C   0  0  0  0  0  0  0  0  0  0  0  0
   23.3676   34.0798  108.2485 C   0  0  0  0  0  0  0  0  0  0  0  0
   22.3514   34.5360  106.0859 C   0  0  0  0  0  0  0  0  0  0  0  0
   26.8448   35.6350  102.6921 C   0  0  0  0  0  0  0  0  0  0  0  0
   24.4103   33.4481  104.2744 O   0  0  0  0  0  1  0  0  0  0  0  0
   32.2123   33.9554  104.4574 C   0  0  0  0  0  0  0  0  0  0  0  0
   25.8319   33.5634  107.4617 O   0  0  0  0  0  0  0  0  0  0  0  0
   23.7459   36.0684  100.0207 C   0  0  0  0  0  0  0  0  0  0  0  0
   30.2708   34.6408  105.4174 O   0  0  0  0  0  0  0  0  0  0  0  0
   32.6365   33.7462  102.1410 O   0  0  0  0  0  0  0  0  0  0  0  0
   27.4254   35.1130  103.7229 C   0  0  0  0  0  0  0  0  0  0  0  0
   29.8242   34.5826  104.1796 C   0  0  0  0  0  0  0  0  0  0  0  0
   24.5377   35.8209  104.7549 O   0  0  0  0  0  1  0  0  0  0  0  0
   32.1321   33.0642  103.2938 C   0  0  0  0  0  0  0  0  0  0  0  0
   28.7306   35.4994  103.9224 N   0  0  0  0  0  0  0  0  0  0  0  0
   33.4989   34.1264  104.9877 O   0  0  0  0  0  0  0  0  0  0  0  0
   24.5761   34.9562  101.9110 C   0  0  0  0  0  0  0  0  0  0  0  0
  1 13  1  0
  1 21  1  0
  1 34  2  0
  2 25  2  0
  2 34  1  0
  3 11  1  0
  3 19  1  0
  4 17  1  0
  4 28  1  0
  5  9  1  0
  5 15  2  0
  5 31  1  0
  6 16  1  0
  6 17  1  0
  6 24  2  0
  7 18  2  0
  8 13  2  0
  8 25  1  0
 10 19  2  0
 11 12  1  0
 12 20  1  0
 14 23  1  0
 14 29  1  0
 15 29  1  0
 16 19  1  0
 16 20  1  0
 17 22  1  0
 17 30  1  0
 18 32  1  0
 21 28  2  3
 23 31  1  0
 23 33  1  0
 26 29  1  0
 27 31  1  0
 28 32  1  0
 29 32  1  0
M  END
>  <ID>  (1) 
conformer_0

$$$$
