
     RDKit          3D

 31 34  0  0  0  0  0  0  0  0999 V2000
   30.1825   35.2000  104.1480 C   0  0  0  0  0  0  0  0  0  0  0  0
   32.5159   33.7504  101.8380 O   0  0  0  0  0  0  0  0  0  0  0  0
   27.7415   35.7544  104.4112 C   0  0  0  0  0  0  0  0  0  0  0  0
   26.1635   34.1879  105.2893 C   0  0  0  0  0  0  0  0  0  0  0  0
   23.9722   33.9695  109.8925 F   0  0  0  0  0  0  0  0  0  0  0  0
   25.4587   35.7896  101.4582 C   0  0  0  0  0  0  0  0  0  0  0  0
   23.1956   35.7049   99.8592 C   0  0  0  0  0  0  0  0  0  0  0  0
   23.1731   35.0226  101.0879 C   0  0  0  0  0  0  0  0  0  0  0  0
   31.9154   34.0485  103.0331 C   0  0  0  0  0  0  0  0  0  0  0  0
   26.7574   35.8014  102.1207 C   0  0  0  0  0  0  0  0  0  0  0  0
   24.2887   35.0396  101.8908 C   0  0  0  0  0  0  0  0  0  0  0  0
   22.3092   34.6098  108.3559 C   0  0  0  0  0  0  0  0  0  0  0  0
   25.4067   36.5494  100.2922 C   0  0  0  0  0  0  0  0  0  0  0  0
   29.4040   37.2145  103.5672 O   0  0  0  0  0  0  0  0  0  0  0  0
   25.5457   35.0036  104.2243 N   0  0  0  0  0  0  0  0  0  0  0  0
   31.6693   33.8248  105.3439 C   0  0  0  0  0  0  0  0  0  0  0  0
   30.5705   34.5993  105.3153 C   0  0  0  0  0  0  0  0  0  0  0  0
   26.6182   35.4827  103.4566 C   0  0  0  0  0  0  0  0  0  0  0  0
   29.1117   36.1190  104.0010 C   0  0  0  0  0  0  0  0  0  0  0  0
   27.2522   36.7935  105.1683 O   0  0  0  0  0  0  0  0  0  0  0  0
   24.3109   36.4835   99.5116 C   0  0  0  0  0  0  0  0  0  0  0  0
   25.7679   33.5876  107.8992 O   0  0  0  0  0  0  0  0  0  0  0  0
   22.8438   34.5248  106.0098 C   0  0  0  0  0  0  0  0  0  0  0  0
   27.6487   34.3717  105.1123 C   0  0  0  0  0  0  0  0  0  0  0  0
   24.9756   33.2145  105.3787 C   0  0  0  0  0  0  0  0  0  0  0  0
   30.9200   34.9521  103.0314 N   0  0  0  0  0  0  0  0  0  0  0  0
   24.5051   33.9652  107.5949 C   0  0  0  0  0  0  0  0  0  0  0  0
   32.3003   33.4740  104.1777 N   0  0  0  0  0  0  0  0  0  0  0  0
   21.9265   34.8250  107.0272 C   0  0  0  0  0  0  0  0  0  0  0  0
   23.6006   34.1838  108.6319 C   0  0  0  0  0  0  0  0  0  0  0  0
   24.0685   33.9910  106.2950 C   0  0  0  0  0  0  0  0  0  0  0  0
  1 17  1  0
  1 19  1  0
  1 26  2  0
  2  9  2  0
  3 18  1  0
  3 19  1  0
  3 20  1  0
  3 24  1  0
  4 15  1  0
  4 24  1  0
  4 25  1  0
  5 30  1  0
  6 10  1  0
  6 11  1  0
  6 13  1  0
  7  8  1  0
  7 21  1  0
  8 11  2  0
  9 26  1  0
  9 28  1  0
 10 18  1  0
 12 29  1  0
 12 30  1  0
 13 21  2  0
 14 19  2  0
 15 18  1  0
 16 17  2  0
 16 28  1  0
 22 27  1  0
 23 29  2  0
 23 31  1  0
 25 31  1  0
 27 30  2  0
 27 31  1  0
M  END
>  <ID>  (1) 
conformer_0

$$$$
