
     RDKit          3D

 27 27  0  0  0  0  0  0  0  0999 V2000
   32.9029   33.7223  104.7040 N   0  0  0  0  0  0  0  0  0  0  0  0
   31.1844   33.7455  102.6208 C   0  0  0  0  0  0  0  0  0  0  0  0
   23.6629   34.7454  108.6556 O   0  0  0  0  0  0  0  0  0  0  0  0
   23.9996   36.0101   99.7992 N   0  0  0  0  0  0  0  0  0  0  0  0
   22.0696   35.1830  107.0986 N   0  0  0  0  0  0  0  0  0  0  0  0
   32.1896   33.7160  101.8185 O   0  0  0  0  0  0  0  0  0  0  0  0
   26.0282   35.7049  101.1238 C   0  0  0  0  0  0  0  0  0  0  0  0
   23.3560   33.5365  105.3229 C   0  0  0  0  0  0  0  0  0  0  0  0
   25.5725   33.5692  104.1375 C   0  0  0  0  0  0  0  0  0  0  0  0
   23.0189   34.4093  107.6407 C   0  0  0  0  0  0  0  0  0  0  0  0
   30.1389   32.7300  102.7185 C   0  0  0  0  0  0  0  0  0  0  0  0
   23.4581   33.2472  106.8632 C   0  0  0  0  0  0  0  0  0  0  0  0
   31.7783   34.3498  104.8835 C   0  0  0  0  0  0  0  0  0  0  0  0
   29.9446   35.5190  103.6322 C   0  0  0  0  0  0  0  0  0  0  0  0
   27.5271   35.1926  103.8803 C   0  0  0  0  0  0  0  0  0  0  0  0
   25.4388   35.3509  102.4977 C   0  0  0  0  0  0  0  0  0  0  0  0
   29.8204   36.8146  103.6092 O   0  0  0  0  0  0  0  0  0  0  0  0
   28.8053   34.6840  103.3261 C   0  0  0  0  0  0  0  0  0  0  0  0
   29.0104   33.2413  103.6205 C   0  0  0  0  0  0  0  0  0  0  0  0
   27.5890   35.6669  105.1301 O   0  0  0  0  0  0  0  0  0  0  0  0
   25.0439   37.7559  100.8873 O   0  0  0  0  0  0  0  0  0  0  0  0
   31.2384   34.5425  105.9747 O   0  0  0  0  0  0  0  0  0  0  0  0
   24.5305   34.3307  104.8874 C   0  0  0  0  0  0  0  0  0  0  0  0
   26.3776   34.5052  103.2475 C   0  0  0  0  0  0  0  0  0  0  0  0
   31.1466   34.7740  103.6366 C   0  0  0  0  0  0  0  0  0  0  0  0
   24.9065   36.6086  100.4899 C   0  0  0  0  0  0  0  0  0  0  0  0
   24.6821   35.5999  105.2543 O   0  0  0  0  0  0  0  0  0  0  0  0
  1 13  1  0
  2  6  1  0
  2 11  1  0
  2 25  1  0
  3 10  2  0
  4 26  1  0
  5 10  1  0
  7 16  1  0
  7 26  1  0
  8 12  1  0
  8 23  1  0
  9 23  1  0
  9 24  1  0
 10 12  1  0
 11 19  1  0
 13 22  2  0
 13 25  1  0
 14 17  1  0
 14 18  1  0
 14 25  1  0
 15 18  1  0
 15 20  1  0
 15 24  1  0
 16 24  1  0
 18 19  1  0
 21 26  2  0
 23 27  1  0
M  END
>  <ID>  (1) 
conformer_0

$$$$
