
     RDKit          3D

 43 45  0  0  0  0  0  0  0  0999 V2000
   24.4813   34.2796  103.8708 O   0  0  0  0  0  0  0  0  0  0  0  0
   24.4232   34.7957  109.4228 O   0  0  0  0  0  0  0  0  0  0  0  0
   30.8935   34.5432  103.8481 C   0  0  0  0  0  0  0  0  0  0  0  0
   29.1193   33.9574   97.1295 O   0  0  0  0  0  0  0  0  0  0  0  0
   23.7483   31.6616  104.3721 C   0  0  0  0  0  0  0  0  0  0  0  0
   25.0321   34.0593  105.2786 N   0  0  0  0  0  0  0  0  0  0  0  0
   23.6528   33.7840  107.4522 C   0  0  0  0  0  0  0  0  0  0  0  0
   31.5501   34.1636  105.1133 C   0  0  0  0  0  0  0  0  0  0  0  0
   30.3977   32.5263  102.6348 O   0  0  0  0  0  0  0  0  0  0  0  0
   22.8652   37.1600   99.8805 C   0  0  0  0  0  0  0  0  0  0  0  0
   21.4837   32.8321  107.1379 C   0  0  0  0  0  0  0  0  0  0  0  0
   23.9965   33.4722  106.1491 C   0  0  0  0  0  0  0  0  0  0  0  0
   26.3211   34.6907  105.3120 C   0  0  0  0  0  0  0  0  0  0  0  0
   27.5045   35.7935  102.9908 N   0  0  0  0  0  0  0  0  0  0  0  0
   29.4084   34.5948  103.9393 C   0  0  0  0  0  0  0  0  0  0  0  0
   26.9798   34.7759   97.8211 C   0  0  0  0  0  0  0  0  0  0  0  0
   20.1975   32.6895  107.5189 O   0  0  0  0  0  0  0  0  0  0  0  0
   29.2504   33.8314  106.3871 O   0  0  0  0  0  0  0  0  0  0  0  0
   24.2484   36.1900  101.5231 C   0  0  0  0  0  0  0  0  0  0  0  0
   28.9421   34.1102  105.1376 C   0  0  0  0  0  0  0  0  0  0  0  0
   25.8837   33.7942  108.0829 O   0  0  0  0  0  0  0  0  0  0  0  0
   26.6096   35.2635  103.9365 C   0  0  0  0  0  0  0  0  0  0  0  0
   21.9303   32.2812  105.9735 C   0  0  0  0  0  0  0  0  0  0  0  0
   24.7112   34.1838  108.3455 C   0  0  0  0  0  0  0  0  0  0  0  0
   28.4734   35.0002   97.4647 C   0  0  0  0  0  0  0  0  0  0  0  0
   28.8509   35.7981  103.3449 C   0  0  0  0  0  0  0  0  0  0  0  0
   31.2905   33.5283  102.8464 C   0  0  0  0  0  0  0  0  0  0  0  0
   24.3755   35.2594   99.1059 C   0  0  0  0  0  0  0  0  0  0  0  0
   26.8088   35.1950   99.2657 C   0  0  0  0  0  0  0  0  0  0  0  0
   22.3396   33.5747  107.9302 C   0  0  0  0  0  0  0  0  0  0  0  0
   32.2681   33.8149  101.9733 O   0  0  0  0  0  0  0  0  0  0  0  0
   27.0169   35.9588  101.6663 C   0  0  0  0  0  0  0  0  0  0  0  0
   29.4287   36.8744  103.4096 O   0  0  0  0  0  0  0  0  0  0  0  0
   21.7713   34.1130  109.1080 O   0  0  0  0  0  0  0  0  0  0  0  0
   25.5691   35.6073  101.7910 C   0  0  0  0  0  0  0  0  0  0  0  0
   23.4082   35.9515  100.4269 C   0  0  0  0  0  0  0  0  0  0  0  0
   25.3620   35.1861  103.1782 C   0  0  0  0  0  0  0  0  0  0  0  0
   31.4608   35.4554  104.6597 O   0  0  0  0  0  0  0  0  0  0  0  0
   25.6144   35.8941   99.2270 N   0  0  0  0  0  0  0  0  0  0  0  0
   27.8806   35.1680  100.0560 O   0  0  0  0  0  0  0  0  0  0  0  0
   23.1786   32.5399  105.5030 C   0  0  0  0  0  0  0  0  0  0  0  0
   28.9033   36.1650   97.4406 O   0  0  0  0  0  0  0  0  0  0  0  0
   32.8855   33.7533  104.9807 O   0  0  0  0  0  0  0  0  0  0  0  0
  1  6  1  0
  1 37  1  0
  2 24  2  0
  3 15  1  0
  3 27  1  0
  3 38  1  0
  4 25  2  0
  5 41  1  0
  6 12  1  0
  6 13  1  0
  7 12  1  0
  7 24  1  0
  7 30  1  0
  8 38  1  0
  8 43  1  0
  9 27  2  0
 10 36  1  0
 11 17  1  0
 11 23  2  0
 11 30  1  0
 12 41  1  0
 13 22  1  0
 14 22  1  0
 14 26  1  0
 14 32  1  0
 15 20  1  0
 15 26  1  0
 16 25  1  0
 16 29  1  0
 18 20  1  0
 19 35  1  0
 19 36  1  0
 21 24  1  0
 22 37  1  0
 23 41  1  0
 25 42  1  0
 26 33  2  0
 27 31  1  0
 28 36  1  0
 28 39  1  0
 29 39  1  0
 29 40  2  0
 30 34  1  0
 32 35  1  0
 35 37  1  0
M  END
>  <ID>  (1) 
conformer_0

$$$$
