
     RDKit          3D

 29 30  0  0  0  0  0  0  0  0999 V2000
   22.8217   35.5747  105.6340 N   0  0  0  0  0  0  0  0  0  0  0  0
   25.2769   34.9795  102.6067 C   0  0  0  0  0  0  0  0  0  0  0  0
   28.3920   34.9940   97.4354 C   0  0  0  0  0  0  0  0  0  0  0  0
   28.2803   34.8288  103.7820 C   0  0  0  0  0  0  0  0  0  0  0  0
   30.4028   34.0442  103.4524 C   0  0  0  0  0  0  0  0  0  0  0  0
   31.8076   33.8356  103.5425 C   0  0  0  0  0  0  0  0  0  0  0  0
   28.7842   36.1669   97.2640 O   0  0  0  0  0  0  0  0  0  0  0  0
   23.8732   34.6612  105.7328 C   0  0  0  0  0  0  0  0  0  0  0  0
   27.2018   36.6488  104.8819 O   0  0  0  0  0  0  0  0  0  0  0  0
   24.6248   33.7854  107.9971 C   0  0  0  0  0  0  0  0  0  0  0  0
   24.4355   36.2839  100.2144 C   0  0  0  0  0  0  0  0  0  0  0  0
   27.1641   35.6095  104.2824 C   0  0  0  0  0  0  0  0  0  0  0  0
   21.6367   34.9113  106.2193 C   0  0  0  0  0  0  0  0  0  0  0  0
   29.4649   33.0426  103.1862 C   0  0  0  0  0  0  0  0  0  0  0  0
   26.5134   35.7468  101.5663 C   0  0  0  0  0  0  0  0  0  0  0  0
   29.6327   35.1929  103.6992 C   0  0  0  0  0  0  0  0  0  0  0  0
   30.0860   36.4863  103.8316 F   0  0  0  0  0  0  0  0  0  0  0  0
   32.4294   33.5802  102.4716 O   0  0  0  0  0  0  0  0  0  0  0  0
   27.2279   34.6546   98.3874 C   0  0  0  0  0  0  0  0  0  0  0  0
   25.8676   35.6576  100.1051 C   0  0  0  0  0  0  0  0  0  0  0  0
   28.9269   33.9394   96.9155 O   0  0  0  0  0  0  0  0  0  0  0  0
   28.2205   33.5349  103.4232 N   0  0  0  0  0  0  0  0  0  0  0  0
   23.6783   33.7439  106.8517 C   0  0  0  0  0  0  0  0  0  0  0  0
   25.2172   35.0339  105.3953 C   0  0  0  0  0  0  0  0  0  0  0  0
   22.2064   33.9003  107.1848 C   0  0  0  0  0  0  0  0  0  0  0  0
   25.9187   34.8785  104.0817 C   0  0  0  0  0  0  0  0  0  0  0  0
   26.4593   35.8898   98.7331 C   0  0  0  0  0  0  0  0  0  0  0  0
   25.8502   34.4298  107.9399 O   0  0  0  0  0  0  0  0  0  0  0  0
   32.4046   33.8850  104.7085 O   0  0  0  0  0  0  0  0  0  0  0  0
  1  8  1  0
  1 13  1  0
  2 15  1  0
  2 26  1  0
  3  7  2  0
  3 19  1  0
  3 21  1  0
  4 12  1  0
  4 16  2  0
  4 22  1  0
  5  6  1  0
  5 14  1  0
  5 16  1  0
  6 18  2  0
  6 29  1  0
  8 23  1  0
  8 24  1  0
  9 12  2  0
 10 23  1  0
 10 28  1  0
 11 20  1  0
 12 26  1  0
 13 25  1  0
 14 22  1  0
 15 20  1  0
 16 17  1  0
 19 27  1  0
 20 27  1  0
 23 25  1  0
 24 26  1  0
M  END
>  <ID>  (1) 
conformer_0

$$$$
