
     RDKit          3D

 21 22  0  0  0  0  0  0  0  0999 V2000
   23.5627   34.4933  105.9676 C   0  0  0  0  0  0  0  0  0  0  0  0
   32.8638   34.0441  104.8929 O   0  0  0  0  0  0  0  0  0  0  0  0
   26.5636   35.8997  103.2125 O   0  0  0  0  0  0  0  0  0  0  0  0
   32.1694   33.5601  102.3332 O   0  0  0  0  0  0  0  0  0  0  0  0
   25.8641   36.3634  100.8228 C   0  0  0  0  0  0  0  0  0  0  0  0
   27.3289   34.9587  103.9268 C   0  0  0  0  0  0  0  0  0  0  0  0
   24.4409   35.0971  104.7305 C   0  0  0  0  0  0  0  0  0  0  0  0
   25.6762   35.0096  105.6526 C   0  0  0  0  0  0  0  0  0  0  0  0
   31.5360   34.1161  104.5644 C   0  0  0  0  0  0  0  0  0  0  0  0
   25.4595   34.2938  107.8835 O   0  0  0  0  0  0  0  0  0  0  0  0
   31.1521   33.3719  103.2930 C   0  0  0  0  0  0  0  0  0  0  0  0
   30.8142   35.4758  104.6229 C   0  0  0  0  0  0  0  0  0  0  0  0
   29.2503   36.8848  103.5221 O   0  0  0  0  0  0  0  0  0  0  0  0
   24.9208   34.0042  106.6143 C   0  0  0  0  0  0  0  0  0  0  0  0
   26.8229   35.7600  101.7757 C   0  0  0  0  0  0  0  0  0  0  0  0
   26.9502   34.5705  105.1957 O   0  0  0  0  0  0  0  0  0  0  0  0
   29.6440   35.6600  103.7748 C   0  0  0  0  0  0  0  0  0  0  0  0
   26.1661   36.0648   99.5643 O   0  0  0  0  0  0  0  0  0  0  0  0
   24.8291   36.9323  101.2291 O   0  0  0  0  0  0  0  0  0  0  0  0
   29.6303   33.2747  103.0152 C   0  0  0  0  0  0  0  0  0  0  0  0
   28.6846   34.5496  103.3840 C   0  0  0  0  0  0  0  0  0  0  0  0
  1  7  1  0
  1 14  1  0
  2  9  1  0
  3  6  1  0
  3 15  1  0
  4 11  1  0
  5 15  1  0
  5 18  2  0
  5 19  1  0
  6 16  1  0
  6 21  1  0
  7  8  1  0
  8 14  1  0
  8 16  1  0
  9 11  1  0
  9 12  1  0
 10 14  1  0
 11 20  1  0
 12 17  1  0
 13 17  1  0
 17 21  1  0
 20 21  1  0
M  END
>  <ID>  (1) 
conformer_0

$$$$
