
     RDKit          3D

 15 17  0  0  0  0  0  0  0  0999 V2000
   19.7237  -48.5910   51.1943 C   0  0  0  0  0  0  0  0  0  0  0  0
   20.8789  -48.3337   51.5997 C   0  0  0  0  0  0  0  0  0  0  0  0
   21.7630  -49.3241   52.1656 C   0  0  0  0  0  0  0  0  0  0  0  0
   21.2408  -50.6224   52.2001 C   0  0  0  0  0  0  0  0  0  0  0  0
   22.0701  -51.7363   52.7124 N   0  0  0  0  0  0  0  0  0  0  0  0
   18.8772  -47.6741   50.7371 O   0  0  0  0  0  0  0  0  0  0  0  0
   23.3956  -51.3462   52.8488 C   0  0  0  0  0  0  0  0  0  0  0  0
   21.7716  -52.9676   52.2770 C   0  0  0  0  0  0  0  0  0  0  0  0
   23.6134  -49.9607   53.1717 N   0  0  0  0  0  0  0  0  0  0  0  0
   22.8582  -53.7056   52.6514 C   0  0  0  0  0  0  0  0  0  0  0  0
   22.9907  -49.0723   52.7152 C   0  0  0  0  0  0  0  0  0  0  0  0
   19.9785  -50.8409   51.7492 C   0  0  0  0  0  0  0  0  0  0  0  0
   19.1038  -49.8130   51.2885 C   0  0  0  0  0  0  0  0  0  0  0  0
   23.5771  -47.9329   52.6676 O   0  0  0  0  0  0  0  0  0  0  0  0
   23.9101  -52.6483   53.1104 C   0  0  0  0  0  0  0  0  0  0  0  0
  1  2  1  0
  2  3  2  0
  3  4  1  0
  4  5  1  0
  1  6  1  0
  5  7  1  0
  5  8  1  0
  7  9  1  0
  8 10  2  0
  3 11  1  0
  9 11  1  0
  4 12  2  0
  1 13  2  0
 12 13  1  0
 11 14  2  0
  7 15  2  0
 10 15  1  0
M  END
>  <ID>  (1) 
conformer_0

$$$$
