
     RDKit          3D

 16 18  0  0  0  0  0  0  0  0999 V2000
   18.6281  -49.0966   51.0457 O   0  0  0  0  0  0  0  0  0  0  0  0
   19.0856  -50.1077   51.4736 C   0  0  0  0  0  0  0  0  0  0  0  0
   18.5853  -51.3117   51.5369 N   0  0  0  0  0  0  0  0  0  0  0  0
   20.4837  -49.9288   51.9061 C   0  0  0  0  0  0  0  0  0  0  0  0
   21.2066  -51.0833   52.3261 C   0  0  0  0  0  0  0  0  0  0  0  0
   20.7145  -52.3317   52.3349 N   0  0  0  0  0  0  0  0  0  0  0  0
   19.4260  -52.3867   51.9593 C   0  0  0  0  0  0  0  0  0  0  0  0
   22.5254  -50.6747   52.7215 N   0  0  0  0  0  0  0  0  0  0  0  0
   23.5604  -51.4863   53.1471 C   0  0  0  0  0  0  0  0  0  0  0  0
   23.4283  -52.8071   53.0891 C   0  0  0  0  0  0  0  0  0  0  0  0
   24.7305  -50.6909   53.4210 C   0  0  0  0  0  0  0  0  0  0  0  0
   25.8198  -51.4822   53.9480 C   0  0  0  0  0  0  0  0  0  0  0  0
   22.3703  -49.3120   52.3481 C   0  0  0  0  0  0  0  0  0  0  0  0
   21.3050  -48.7722   51.9689 N   0  0  0  0  0  0  0  0  0  0  0  0
   24.5436  -53.5119   53.5558 C   0  0  0  0  0  0  0  0  0  0  0  0
   25.6805  -52.9258   54.0006 C   0  0  0  0  0  0  0  0  0  0  0  0
  1  2  2  0
  2  3  1  0
  2  4  1  0
  4  5  2  0
  5  6  1  0
  3  7  2  0
  6  7  1  0
  5  8  1  0
  8  9  1  0
  9 10  2  0
  9 11  1  0
 11 12  2  0
  8 13  1  0
  4 14  1  0
 13 14  2  0
 10 15  1  0
 12 16  1  0
 15 16  2  0
M  END
>  <ID>  (1) 
conformer_0

$$$$
