
     RDKit          3D

 15 16  0  0  0  0  0  0  0  0999 V2000
   18.4360  -50.1999   51.3286 C   0  0  0  0  0  0  0  0  0  0  0  0
   19.6597  -50.6834   51.6414 C   0  0  0  0  0  0  0  0  0  0  0  0
   20.0879  -51.7679   51.9348 C   0  0  0  0  0  0  0  0  0  0  0  0
   21.4744  -51.8657   52.1008 C   0  0  0  0  0  0  0  0  0  0  0  0
   22.3407  -50.8025   52.2118 C   0  0  0  0  0  0  0  0  0  0  0  0
   20.6009  -49.4824   51.7062 C   0  0  0  0  0  0  0  0  0  0  0  0
   21.8442  -49.4964   51.9924 C   0  0  0  0  0  0  0  0  0  0  0  0
   19.7354  -48.2681   51.4627 N   0  0  0  0  0  0  0  0  0  0  0  0
   22.1433  -53.1383   52.3076 C   0  0  0  0  0  0  0  0  0  0  0  0
   20.0428  -46.9736   51.4516 O   0  0  0  0  0  0  0  0  0  0  0  0
   23.3881  -53.3529   52.1511 C   0  0  0  0  0  0  0  0  0  0  0  0
   24.2478  -53.7582   53.2313 C   0  0  0  0  0  0  0  0  0  0  0  0
   18.4656  -48.7831   51.2120 N   0  0  0  0  0  0  0  0  0  0  0  0
   25.2399  -52.9829   53.5785 O   0  0  0  0  0  0  0  0  0  0  0  0
   23.8002  -54.5174   54.1237 O   0  0  0  0  0  0  0  0  0  0  0  0
  1  2  1  0
  2  3  2  0
  3  4  1  0
  4  5  2  0
  2  6  1  0
  5  7  1  0
  6  7  2  0
  6  8  1  0
  4  9  1  0
  8 10  1  0
  9 11  2  3
 11 12  1  0
  1 13  2  0
  8 13  1  0
 12 14  1  0
 12 15  2  0
M  END
>  <ID>  (1) 
conformer_0

$$$$
