
     RDKit          3D

 15 17  0  0  0  0  0  0  0  0999 V2000
   18.6281  -49.0966   51.0457 O   0  0  0  0  0  0  0  0  0  0  0  0
   19.5959  -49.7494   51.5262 C   0  0  0  0  0  0  0  0  0  0  0  0
   20.8047  -49.0221   51.7470 C   0  0  0  0  0  0  0  0  0  0  0  0
   21.9557  -49.6903   52.1420 C   0  0  0  0  0  0  0  0  0  0  0  0
   21.9001  -51.0763   52.2159 C   0  0  0  0  0  0  0  0  0  0  0  0
   23.0818  -48.9795   52.4178 C   0  0  0  0  0  0  0  0  0  0  0  0
   23.0257  -51.8550   52.6417 C   0  0  0  0  0  0  0  0  0  0  0  0
   22.8791  -53.2005   52.6030 C   0  0  0  0  0  0  0  0  0  0  0  0
   24.1522  -49.6387   52.8861 C   0  0  0  0  0  0  0  0  0  0  0  0
   20.5860  -51.4897   51.9503 C   0  0  0  0  0  0  0  0  0  0  0  0
   23.9848  -53.8906   53.0741 C   0  0  0  0  0  0  0  0  0  0  0  0
   19.5550  -51.0378   51.5845 C   0  0  0  0  0  0  0  0  0  0  0  0
   24.1381  -51.0838   53.0285 C   0  0  0  0  0  0  0  0  0  0  0  0
   25.1770  -51.8277   53.5260 C   0  0  0  0  0  0  0  0  0  0  0  0
   25.1405  -53.2188   53.5360 C   0  0  0  0  0  0  0  0  0  0  0  0
  1  2  1  0
  2  3  1  0
  3  4  2  0
  4  5  1  0
  4  6  1  0
  5  7  1  0
  7  8  2  0
  6  9  2  0
  5 10  2  0
  8 11  1  0
  2 12  2  0
 10 12  1  0
  7 13  1  0
  9 13  1  0
 13 14  2  0
 11 15  2  0
 14 15  1  0
M  END
>  <ID>  (1) 
conformer_0

$$$$
