
     RDKit          3D

 13 14  0  0  0  0  0  0  0  0999 V2000
   18.4627  -50.6629   51.6654 N   0  0  0  0  0  0  0  0  0  0  0  0
   19.2719  -51.4922   51.9102 C   0  0  0  0  0  0  0  0  0  0  0  0
   18.7195  -49.3467   51.3491 C   0  0  0  0  0  0  0  0  0  0  0  0
   20.1740  -49.2463   51.5079 C   0  0  0  0  0  0  0  0  0  0  0  0
   20.6051  -51.3190   51.9909 C   0  0  0  0  0  0  0  0  0  0  0  0
   21.0534  -50.0427   51.7447 C   0  0  0  0  0  0  0  0  0  0  0  0
   21.4827  -52.3428   52.3080 C   0  0  0  0  0  0  0  0  0  0  0  0
   22.4163  -49.6527   51.7921 C   0  0  0  0  0  0  0  0  0  0  0  0
   21.1692  -53.5472   52.6189 C   0  0  0  0  0  0  0  0  0  0  0  0
   22.9070  -52.0032   52.3751 C   0  0  0  0  0  0  0  0  0  0  0  0
   19.9508  -54.0032   52.7213 O   0  0  0  0  0  0  0  0  0  0  0  0
   22.1518  -54.5542   52.5457 O   0  0  0  0  0  0  0  0  0  0  0  0
   23.2527  -50.7506   52.3526 C   0  0  0  0  0  0  0  0  0  0  0  0
  1  2  1  0
  1  3  2  0
  3  4  1  0
  2  5  2  0
  4  6  2  0
  5  6  1  0
  5  7  1  0
  6  8  1  0
  7  9  1  0
  7 10  2  0
  9 11  1  0
  9 12  2  0
  8 13  2  0
 10 13  1  0
M  END
>  <ID>  (1) 
conformer_0

$$$$
