
     RDKit          3D

 12 13  0  0  0  0  0  0  0  0999 V2000
   18.7575  -50.8466   51.6579 C   0  0  0  0  0  0  0  0  0  0  0  0
   19.7945  -51.6738   51.9183 C   0  0  0  0  0  0  0  0  0  0  0  0
   21.1246  -51.2547   52.0028 C   0  0  0  0  0  0  0  0  0  0  0  0
   22.1587  -52.1284   52.3357 C   0  0  0  0  0  0  0  0  0  0  0  0
   21.2267  -49.8126   51.9467 C   0  0  0  0  0  0  0  0  0  0  0  0
   22.0684  -53.3728   52.3544 C   0  0  0  0  0  0  0  0  0  0  0  0
   20.7078  -53.8978   52.2119 C   0  0  0  0  0  0  0  0  0  0  0  0
   23.0371  -54.3434   52.5647 O   0  0  0  0  0  0  0  0  0  0  0  0
   19.0768  -49.6538   51.5201 N   0  0  0  0  0  0  0  0  0  0  0  0
   19.5998  -53.1021   51.9675 C   0  0  0  0  0  0  0  0  0  0  0  0
   20.2211  -49.0678   51.6765 C   0  0  0  0  0  0  0  0  0  0  0  0
   24.2913  -53.7887   52.8068 C   0  0  0  0  0  0  0  0  0  0  0  0
  1  2  1  0
  2  3  2  0
  3  4  1  0
  3  5  1  0
  4  6  2  0
  6  7  1  0
  6  8  1  0
  1  9  2  0
  2 10  1  0
  7 10  2  0
  5 11  2  0
  9 11  1  0
  8 12  1  0
M  END
>  <ID>  (1) 
conformer_0

$$$$
