
     RDKit          3D

 14 15  0  0  0  0  0  0  0  0999 V2000
   18.4627  -50.6629   51.6654 N   0  0  0  0  0  0  0  0  0  0  0  0
   19.2719  -51.4922   51.9102 C   0  0  0  0  0  0  0  0  0  0  0  0
   19.1641  -52.7652   52.0927 N   0  0  0  0  0  0  0  0  0  0  0  0
   20.4317  -53.3354   52.2922 C   0  0  0  0  0  0  0  0  0  0  0  0
   20.6270  -50.7755   51.9164 C   0  0  0  0  0  0  0  0  0  0  0  0
   21.5358  -52.6574   52.3442 C   0  0  0  0  0  0  0  0  0  0  0  0
   21.7019  -51.3862   52.1004 C   0  0  0  0  0  0  0  0  0  0  0  0
   20.5191  -49.3384   51.6351 N   0  0  0  0  0  0  0  0  0  0  0  0
   22.7761  -53.6031   52.4501 C   0  0  0  0  0  0  0  0  0  0  0  0
   19.0357  -49.3549   51.4533 C   0  0  0  0  0  0  0  0  0  0  0  0
   18.4826  -48.2173   51.1532 O   0  0  0  0  0  0  0  0  0  0  0  0
   22.7618  -54.8381   52.1969 O   0  0  0  0  0  0  0  0  0  0  0  0
   21.3635  -48.3740   51.4753 C   0  0  0  0  0  0  0  0  0  0  0  0
   23.9043  -52.9923   52.8852 O   0  0  0  0  0  0  0  0  0  0  0  0
  1  2  1  0
  2  3  2  0
  3  4  1  0
  2  5  1  0
  4  6  2  0
  5  7  2  0
  6  7  1  0
  5  8  1  0
  6  9  1  0
  1 10  1  0
  8 10  1  0
 10 11  2  0
  9 12  2  0
  8 13  1  0
  9 14  1  0
M  END
>  <ID>  (1) 
conformer_0

$$$$
