
     RDKit          3D

 14 15  0  0  0  0  0  0  0  0999 V2000
   18.4360  -50.1999   51.3286 C   0  0  0  0  0  0  0  0  0  0  0  0
   19.6597  -50.6834   51.6414 C   0  0  0  0  0  0  0  0  0  0  0  0
   19.9021  -52.0395   51.8616 C   0  0  0  0  0  0  0  0  0  0  0  0
   18.3974  -48.7886   51.1005 N   0  0  0  0  0  0  0  0  0  0  0  0
   19.3666  -47.9950   51.2403 C   0  0  0  0  0  0  0  0  0  0  0  0
   20.7933  -49.7830   51.7997 C   0  0  0  0  0  0  0  0  0  0  0  0
   18.9165  -52.8838   52.0206 O   0  0  0  0  0  0  0  0  0  0  0  0
   20.6161  -48.4526   51.6258 C   0  0  0  0  0  0  0  0  0  0  0  0
   22.0938  -50.2722   52.1050 N   0  0  0  0  0  0  0  0  0  0  0  0
   23.1914  -49.4604   52.3174 C   0  0  0  0  0  0  0  0  0  0  0  0
   21.2234  -52.4882   51.9748 N   0  0  0  0  0  0  0  0  0  0  0  0
   22.2176  -51.6320   52.1907 C   0  0  0  0  0  0  0  0  0  0  0  0
   21.5019  -53.8254   51.9076 C   0  0  0  0  0  0  0  0  0  0  0  0
   23.3757  -52.0399   52.4845 O   0  0  0  0  0  0  0  0  0  0  0  0
  1  2  1  0
  2  3  1  0
  1  4  2  0
  4  5  1  0
  2  6  2  0
  3  7  2  0
  5  8  2  0
  6  8  1  0
  6  9  1  0
  9 10  1  0
  3 11  1  0
  9 12  1  0
 11 12  1  0
 11 13  1  0
 12 14  2  0
M  END
>  <ID>  (1) 
conformer_0

$$$$
