
     RDKit          3D

 11 12  0  0  0  0  0  0  0  0999 V2000
   18.4627  -50.6629   51.6654 N   0  0  0  0  0  0  0  0  0  0  0  0
   18.8811  -49.5200   51.4414 C   0  0  0  0  0  0  0  0  0  0  0  0
   20.2705  -49.2049   51.4838 C   0  0  0  0  0  0  0  0  0  0  0  0
   20.8520  -47.9975   51.2322 C   0  0  0  0  0  0  0  0  0  0  0  0
   20.9264  -50.3768   51.9747 C   0  0  0  0  0  0  0  0  0  0  0  0
   20.3233  -51.5857   52.0847 C   0  0  0  0  0  0  0  0  0  0  0  0
   19.0829  -51.6034   51.8832 C   0  0  0  0  0  0  0  0  0  0  0  0
   21.1645  -52.6530   52.4118 N   0  0  0  0  0  0  0  0  0  0  0  0
   22.3680  -52.3054   52.4222 C   0  0  0  0  0  0  0  0  0  0  0  0
   22.5064  -50.4423   52.1721 S   0  0  0  0  0  0  0  0  0  0  0  0
   23.5158  -53.0509   52.8083 N   0  0  0  0  0  0  0  0  0  0  0  0
  1  2  1  0
  2  3  2  0
  3  4  1  0
  3  5  1  0
  5  6  2  0
  1  7  2  0
  6  7  1  0
  6  8  1  0
  8  9  2  0
  5 10  1  0
  9 10  1  0
  9 11  1  0
M  END
>  <ID>  (1) 
conformer_0

$$$$
