
     RDKit          3D

 11 12  0  0  0  0  0  0  0  0999 V2000
   18.6592  -50.3900   51.0367 O   0  0  0  0  0  0  0  0  0  0  0  0
   19.6717  -49.9332   51.4649 C   0  0  0  0  0  0  0  0  0  0  0  0
   20.5807  -50.5117   51.9592 N   0  0  0  0  0  0  0  0  0  0  0  0
   21.7551  -50.0013   52.4000 C   0  0  0  0  0  0  0  0  0  0  0  0
   22.0088  -48.6679   52.2921 C   0  0  0  0  0  0  0  0  0  0  0  0
   22.7166  -50.9712   52.8913 C   0  0  0  0  0  0  0  0  0  0  0  0
   19.6572  -48.3422   51.5613 C   0  0  0  0  0  0  0  0  0  0  0  0
   20.5246  -51.9897   51.8653 C   0  0  0  0  0  0  0  0  0  0  0  0
   20.8485  -47.9017   51.9425 C   0  0  0  0  0  0  0  0  0  0  0  0
   22.6913  -52.2560   52.7522 C   0  0  0  0  0  0  0  0  0  0  0  0
   21.5662  -52.7377   52.1788 C   0  0  0  0  0  0  0  0  0  0  0  0
  1  2  2  0
  2  3  1  0
  3  4  1  0
  4  5  2  0
  4  6  1  0
  2  7  1  0
  3  8  1  0
  5  9  1  0
  7  9  2  0
  6 10  2  0
  8 11  2  0
 10 11  1  0
M  END
>  <ID>  (1) 
conformer_0

$$$$
