
     RDKit          3D

 12 13  0  0  0  0  0  0  0  0999 V2000
   18.7575  -50.8466   51.6579 C   0  0  0  0  0  0  0  0  0  0  0  0
   19.7945  -51.6738   51.9183 C   0  0  0  0  0  0  0  0  0  0  0  0
   21.1246  -51.2547   52.0028 C   0  0  0  0  0  0  0  0  0  0  0  0
   22.1587  -52.1284   52.3357 C   0  0  0  0  0  0  0  0  0  0  0  0
   23.3717  -51.4876   52.6033 C   0  0  0  0  0  0  0  0  0  0  0  0
   19.1668  -49.5063   51.3433 C   0  0  0  0  0  0  0  0  0  0  0  0
   23.3048  -49.9821   52.6125 C   0  0  0  0  0  0  0  0  0  0  0  0
   24.5749  -49.3860   52.9253 O   0  0  0  0  0  0  0  0  0  0  0  0
   21.2117  -49.8373   51.9937 C   0  0  0  0  0  0  0  0  0  0  0  0
   18.2140  -48.5028   51.0400 O   0  0  0  0  0  0  0  0  0  0  0  0
   20.2221  -48.9873   51.7020 C   0  0  0  0  0  0  0  0  0  0  0  0
   22.4310  -49.2346   52.2876 C   0  0  0  0  0  0  0  0  0  0  0  0
  1  2  1  0
  2  3  2  0
  3  4  1  0
  4  5  2  0
  1  6  2  0
  5  7  1  0
  7  8  1  0
  3  9  1  0
  6 10  1  0
  6 11  1  0
  9 11  2  0
  7 12  2  0
  9 12  1  0
M  END
>  <ID>  (1) 
conformer_0

$$$$
