
     RDKit          3D

 14 16  0  0  0  0  0  0  0  0999 V2000
   18.4360  -50.1999   51.3286 C   0  0  0  0  0  0  0  0  0  0  0  0
   19.0631  -49.0625   51.3318 N   0  0  0  0  0  0  0  0  0  0  0  0
   19.0467  -51.3126   51.6824 N   0  0  0  0  0  0  0  0  0  0  0  0
   20.3924  -48.9362   51.5836 C   0  0  0  0  0  0  0  0  0  0  0  0
   21.1269  -47.7632   51.4585 C   0  0  0  0  0  0  0  0  0  0  0  0
   21.0470  -50.1323   51.9273 C   0  0  0  0  0  0  0  0  0  0  0  0
   20.3812  -51.2838   51.9442 C   0  0  0  0  0  0  0  0  0  0  0  0
   21.0772  -52.4624   52.2427 N   0  0  0  0  0  0  0  0  0  0  0  0
   22.4115  -50.0846   52.2348 C   0  0  0  0  0  0  0  0  0  0  0  0
   20.3712  -46.5616   51.1749 O   0  0  0  0  0  0  0  0  0  0  0  0
   23.1470  -51.1567   52.6471 C   0  0  0  0  0  0  0  0  0  0  0  0
   22.9809  -48.7207   52.1993 C   0  0  0  0  0  0  0  0  0  0  0  0
   22.3505  -52.3559   52.6059 C   0  0  0  0  0  0  0  0  0  0  0  0
   22.4096  -47.7554   51.8060 C   0  0  0  0  0  0  0  0  0  0  0  0
  1  2  2  0
  1  3  1  0
  2  4  1  0
  4  5  2  0
  4  6  1  0
  3  7  2  0
  6  7  1  0
  7  8  1  0
  6  9  2  0
  5 10  1  0
  9 11  1  0
  9 12  1  0
  8 13  2  0
 11 13  2  0
  5 14  1  0
 12 14  2  0
M  END
>  <ID>  (1) 
conformer_0

$$$$
