
     RDKit          3D

 12 12  0  0  0  0  0  0  0  0999 V2000
   18.7231  -49.7640   51.1575 O   0  0  0  0  0  0  0  0  0  0  0  0
   19.3576  -50.6918   51.6723 C   0  0  0  0  0  0  0  0  0  0  0  0
   20.7712  -50.4492   51.9559 C   0  0  0  0  0  0  0  0  0  0  0  0
   21.2292  -49.1424   51.9967 C   0  0  0  0  0  0  0  0  0  0  0  0
   21.6589  -51.5098   51.9018 C   0  0  0  0  0  0  0  0  0  0  0  0
   20.3971  -48.0075   51.8815 O   0  0  0  0  0  0  0  0  0  0  0  0
   22.5587  -48.9382   52.1113 C   0  0  0  0  0  0  0  0  0  0  0  0
   18.6931  -51.5462   52.2696 O   0  0  0  0  0  0  0  0  0  0  0  0
   22.9997  -51.2221   52.1084 C   0  0  0  0  0  0  0  0  0  0  0  0
   23.9205  -52.3908   52.2849 O   0  0  0  0  0  0  0  0  0  0  0  0
   23.4973  -49.9520   52.2597 C   0  0  0  0  0  0  0  0  0  0  0  0
   24.3906  -52.6689   53.5290 C   0  0  0  0  0  0  0  0  0  0  0  0
  1  2  1  0
  2  3  1  0
  3  4  1  0
  3  5  2  0
  4  6  1  0
  4  7  2  0
  2  8  2  0
  5  9  1  0
  9 10  1  0
  7 11  1  0
  9 11  2  0
 10 12  1  0
M  END
>  <ID>  (1) 
conformer_0

$$$$
