
     RDKit          3D

 13 13  0  0  0  0  0  0  0  0999 V2000
   18.6592  -50.3900   51.0367 O   0  0  0  0  0  0  0  0  0  0  0  0
   19.6717  -49.9332   51.4649 C   0  0  0  0  0  0  0  0  0  0  0  0
   20.0599  -48.6398   51.4802 C   0  0  0  0  0  0  0  0  0  0  0  0
   20.7219  -50.8527   51.9264 C   0  0  0  0  0  0  0  0  0  0  0  0
   22.0306  -50.3594   52.1328 C   0  0  0  0  0  0  0  0  0  0  0  0
   20.5389  -52.1924   51.9371 C   0  0  0  0  0  0  0  0  0  0  0  0
   19.3050  -52.7450   51.7985 O   0  0  0  0  0  0  0  0  0  0  0  0
   21.6325  -52.9716   52.1580 C   0  0  0  0  0  0  0  0  0  0  0  0
   22.8670  -52.2381   52.4524 C   0  0  0  0  0  0  0  0  0  0  0  0
   23.0877  -51.1655   52.5258 C   0  0  0  0  0  0  0  0  0  0  0  0
   24.0991  -50.3448   52.9386 N   0  0  0  0  0  0  0  0  0  0  0  0
   24.9973  -51.1198   53.7730 O   0  0  0  0  0  0  0  0  0  0  0  0
   24.5757  -49.2509   52.7621 O   0  0  0  0  0  0  0  0  0  0  0  0
  1  2  2  0
  2  3  1  0
  2  4  1  0
  4  5  2  0
  4  6  1  0
  6  7  1  0
  6  8  2  0
  8  9  1  0
  5 10  1  0
  9 10  2  0
 10 11  1  0
 11 12  1  0
 11 13  2  0
M  CHG  2  11   1  12  -1
M  END
>  <ID>  (1) 
conformer_0

$$$$
