
     RDKit          3D

 14 15  0  0  0  0  0  0  0  0999 V2000
   18.7231  -49.7640   51.1575 C   0  0  0  0  0  0  0  0  0  0  0  0
   19.6101  -50.6501   51.6926 C   0  0  0  0  0  0  0  0  0  0  0  0
   20.9651  -50.1457   51.8931 C   0  0  0  0  0  0  0  0  0  0  0  0
   21.9794  -51.1234   52.3920 C   0  0  0  0  0  0  0  0  0  0  0  0
   21.6863  -52.4683   52.4579 C   0  0  0  0  0  0  0  0  0  0  0  0
   19.4846  -52.0373   51.7890 C   0  0  0  0  0  0  0  0  0  0  0  0
   23.2930  -50.6502   52.6230 C   0  0  0  0  0  0  0  0  0  0  0  0
   24.1805  -51.4144   53.2853 N   0  0  0  0  0  0  0  0  0  0  0  0
   23.9858  -52.8450   53.3469 C   0  0  0  0  0  0  0  0  0  0  0  0
   22.7370  -53.3028   52.8926 C   0  0  0  0  0  0  0  0  0  0  0  0
   20.4754  -52.9039   52.1498 C   0  0  0  0  0  0  0  0  0  0  0  0
   23.5171  -49.2659   52.9914 O   0  0  0  0  0  0  0  0  0  0  0  0
   25.4935  -50.8299   53.7492 C   0  0  0  0  0  0  0  0  0  0  0  0
   24.9342  -53.5463   53.7806 O   0  0  0  0  0  0  0  0  0  0  0  0
  1  2  1  0
  2  3  2  0
  3  4  1  0
  4  5  2  0
  2  6  1  0
  4  7  1  0
  7  8  1  0
  8  9  1  0
  5 10  1  0
  9 10  1  0
  5 11  1  0
  6 11  2  0
  7 12  2  0
  8 13  1  0
  9 14  2  0
M  END
>  <ID>  (1) 
conformer_0

$$$$
