
     RDKit          3D

 14 15  0  0  0  0  0  0  0  0999 V2000
   20.3288  -48.0516   51.2580 C   0  0  0  0  0  0  0  0  0  0  0  0
   19.9298  -49.3278   51.5099 C   0  0  0  0  0  0  0  0  0  0  0  0
   20.7338  -50.3662   51.8797 C   0  0  0  0  0  0  0  0  0  0  0  0
   22.0887  -50.0646   52.1046 C   0  0  0  0  0  0  0  0  0  0  0  0
   20.2782  -51.6700   51.9579 C   0  0  0  0  0  0  0  0  0  0  0  0
   22.9622  -51.0376   52.5979 C   0  0  0  0  0  0  0  0  0  0  0  0
   19.0255  -51.9542   51.7250 O   0  0  0  0  0  0  0  0  0  0  0  0
   21.1607  -52.7150   52.4753 N   0  0  0  0  0  0  0  0  0  0  0  0
   24.2924  -50.8231   52.9576 O   0  0  0  0  0  0  0  0  0  0  0  0
   22.4465  -48.6635   51.9745 C   0  0  0  0  0  0  0  0  0  0  0  0
   19.4090  -47.0248   50.9445 O   0  0  0  0  0  0  0  0  0  0  0  0
   22.5627  -52.3665   52.6496 C   0  0  0  0  0  0  0  0  0  0  0  0
   23.3929  -53.4399   52.9775 C   0  0  0  0  0  0  0  0  0  0  0  0
   21.6276  -47.7240   51.6193 C   0  0  0  0  0  0  0  0  0  0  0  0
  1  2  1  0
  2  3  2  0
  3  4  1  0
  3  5  1  0
  4  6  1  0
  5  7  2  0
  5  8  1  0
  6  9  2  0
  4 10  2  0
  1 11  1  0
  6 12  1  0
  8 12  2  0
 12 13  1  0
  1 14  2  0
 10 14  1  0
M  END
>  <ID>  (1) 
conformer_0

$$$$
