
     RDKit          3D

 15 17  0  0  0  0  0  0  0  0999 V2000
   19.0300  -49.0053   51.0142 O   0  0  0  0  0  0  0  0  0  0  0  0
   19.8448  -49.8439   51.6017 C   0  0  0  0  0  0  0  0  0  0  0  0
   19.5671  -51.0714   51.9110 C   0  0  0  0  0  0  0  0  0  0  0  0
   21.0963  -49.3315   51.8547 N   0  0  0  0  0  0  0  0  0  0  0  0
   20.4375  -51.9783   52.3458 C   0  0  0  0  0  0  0  0  0  0  0  0
   21.5851  -48.0480   51.5548 C   0  0  0  0  0  0  0  0  0  0  0  0
   21.7439  -51.3387   52.5666 C   0  0  0  0  0  0  0  0  0  0  0  0
   22.0698  -50.1932   52.3094 C   0  0  0  0  0  0  0  0  0  0  0  0
   23.3035  -49.4736   52.5655 C   0  0  0  0  0  0  0  0  0  0  0  0
   22.7168  -52.3968   52.9703 C   0  0  0  0  0  0  0  0  0  0  0  0
   20.0724  -53.2022   52.5988 C   0  0  0  0  0  0  0  0  0  0  0  0
   24.2993  -49.8011   53.3162 C   0  0  0  0  0  0  0  0  0  0  0  0
   23.0290  -48.0482   52.5089 C   0  0  0  0  0  0  0  0  0  0  0  0
   24.0446  -51.9894   53.1474 C   0  0  0  0  0  0  0  0  0  0  0  0
   24.6610  -50.8990   53.7362 C   0  0  0  0  0  0  0  0  0  0  0  0
  1  2  2  0
  2  3  1  0
  2  4  1  0
  3  5  2  0
  4  6  1  0
  5  7  1  0
  4  8  1  0
  7  8  2  0
  8  9  1  0
  7 10  1  0
  5 11  1  0
  9 12  1  0
  6 13  1  0
  9 13  1  0
 10 14  2  0
 12 15  2  0
 14 15  1  0
M  END
>  <ID>  (1) 
conformer_0

$$$$
