
     RDKit          3D

 10 10  0  0  0  0  0  0  0  0999 V2000
   19.8238  -51.3050   51.7390 C   0  0  0  0  0  0  0  0  0  0  0  0
   20.2320  -50.0962   51.6472 C   0  0  0  0  0  0  0  0  0  0  0  0
   20.5900  -52.1457   52.0671 C   0  0  0  0  0  0  0  0  0  0  0  0
   21.9326  -51.9552   52.3139 C   0  0  0  0  0  0  0  0  0  0  0  0
   21.4519  -49.6376   51.8959 C   0  0  0  0  0  0  0  0  0  0  0  0
   22.9617  -52.9217   52.7183 C   0  0  0  0  0  0  0  0  0  0  0  0
   22.8296  -54.0323   52.6153 O   0  0  0  0  0  0  0  0  0  0  0  0
   19.2391  -49.0454   51.2730 O   0  0  0  0  0  0  0  0  0  0  0  0
   22.4437  -50.5287   52.2794 C   0  0  0  0  0  0  0  0  0  0  0  0
   23.9598  -52.5013   53.4265 O   0  0  0  0  0  0  0  0  0  0  0  0
  1  2  1  0
  1  3  2  0
  3  4  1  0
  2  5  2  0
  4  6  1  0
  6  7  2  0
  2  8  1  0
  4  9  2  0
  5  9  1  0
  6 10  1  0
M  END
>  <ID>  (1) 
conformer_0

$$$$
