
     RDKit          3D

 15 17  0  0  0  0  0  0  0  0999 V2000
   18.4627  -50.6629   51.6654 N   0  0  0  0  0  0  0  0  0  0  0  0
   18.8811  -49.5200   51.4414 C   0  0  0  0  0  0  0  0  0  0  0  0
   20.2705  -49.2049   51.4838 C   0  0  0  0  0  0  0  0  0  0  0  0
   20.8520  -47.9975   51.2322 C   0  0  0  0  0  0  0  0  0  0  0  0
   20.9264  -50.3768   51.9747 C   0  0  0  0  0  0  0  0  0  0  0  0
   20.3233  -51.5857   52.0847 C   0  0  0  0  0  0  0  0  0  0  0  0
   19.0829  -51.6034   51.8832 C   0  0  0  0  0  0  0  0  0  0  0  0
   21.1645  -52.6530   52.4118 N   0  0  0  0  0  0  0  0  0  0  0  0
   22.3764  -50.1550   52.0204 C   0  0  0  0  0  0  0  0  0  0  0  0
   23.0741  -51.2288   52.4039 N   0  0  0  0  0  0  0  0  0  0  0  0
   20.6885  -53.9449   52.6303 C   0  0  0  0  0  0  0  0  0  0  0  0
   22.4350  -52.4716   52.6184 C   0  0  0  0  0  0  0  0  0  0  0  0
   21.5746  -54.8706   52.9911 C   0  0  0  0  0  0  0  0  0  0  0  0
   22.7801  -53.8511   53.0468 C   0  0  0  0  0  0  0  0  0  0  0  0
   19.6101  -54.5820   52.2566 O   0  0  0  0  0  0  0  0  0  0  0  0
  1  2  1  0
  2  3  2  0
  3  4  1  0
  3  5  1  0
  5  6  2  0
  1  7  2  0
  6  7  1  0
  6  8  1  0
  5  9  1  0
  9 10  2  0
  8 11  1  0
  8 12  1  0
 10 12  1  0
 11 13  1  0
 12 14  2  0
 13 14  1  0
 11 15  2  0
M  END
>  <ID>  (1) 
conformer_0

$$$$
