
     RDKit          3D

 14 15  0  0  0  0  0  0  0  0999 V2000
   19.7237  -48.5910   51.1943 C   0  0  0  0  0  0  0  0  0  0  0  0
   20.8789  -48.3337   51.5997 C   0  0  0  0  0  0  0  0  0  0  0  0
   21.6653  -49.1266   52.0367 C   0  0  0  0  0  0  0  0  0  0  0  0
   21.3519  -50.5195   52.1796 C   0  0  0  0  0  0  0  0  0  0  0  0
   23.0998  -48.8154   52.4837 C   0  0  0  0  0  0  0  0  0  0  0  0
   19.1099  -49.7074   51.3819 C   0  0  0  0  0  0  0  0  0  0  0  0
   20.0258  -50.7916   51.8442 C   0  0  0  0  0  0  0  0  0  0  0  0
   22.1298  -51.5112   52.7151 N   0  0  0  0  0  0  0  0  0  0  0  0
   21.8093  -52.8079   52.6544 C   0  0  0  0  0  0  0  0  0  0  0  0
   23.4589  -47.6748   52.5729 O   0  0  0  0  0  0  0  0  0  0  0  0
   23.9448  -49.8093   52.7821 N   0  0  0  0  0  0  0  0  0  0  0  0
   23.4660  -51.0607   53.0186 C   0  0  0  0  0  0  0  0  0  0  0  0
   25.2460  -49.3503   53.2359 C   0  0  0  0  0  0  0  0  0  0  0  0
   24.2869  -52.0605   53.2679 O   0  0  0  0  0  0  0  0  0  0  0  0
  1  2  1  0
  2  3  2  0
  3  4  1  0
  3  5  1  0
  1  6  2  0
  4  7  2  0
  6  7  1  0
  4  8  1  0
  8  9  1  0
  5 10  2  0
  5 11  1  0
  8 12  1  0
 11 12  1  0
 11 13  1  0
 12 14  2  0
M  END
>  <ID>  (1) 
conformer_0

$$$$
