
     RDKit          3D

 12 13  0  0  0  0  0  0  0  0999 V2000
   18.7575  -50.8466   51.6579 C   0  0  0  0  0  0  0  0  0  0  0  0
   19.7945  -51.6738   51.9183 C   0  0  0  0  0  0  0  0  0  0  0  0
   19.5898  -53.0189   52.2269 C   0  0  0  0  0  0  0  0  0  0  0  0
   20.9116  -51.1402   52.3360 C   0  0  0  0  0  0  0  0  0  0  0  0
   20.4941  -53.7382   52.5506 C   0  0  0  0  0  0  0  0  0  0  0  0
   21.8132  -53.2313   52.7659 C   0  0  0  0  0  0  0  0  0  0  0  0
   21.9979  -51.9539   52.6375 C   0  0  0  0  0  0  0  0  0  0  0  0
   23.2799  -51.3318   52.8074 N   0  0  0  0  0  0  0  0  0  0  0  0
   21.0848  -49.7263   52.1053 C   0  0  0  0  0  0  0  0  0  0  0  0
   22.8986  -54.0733   53.1413 N   0  0  0  0  0  0  0  0  0  0  0  0
   19.1537  -49.5846   51.5049 N   0  0  0  0  0  0  0  0  0  0  0  0
   20.1994  -49.0598   51.7771 C   0  0  0  0  0  0  0  0  0  0  0  0
  1  2  1  0
  2  3  1  0
  2  4  2  0
  3  5  2  0
  5  6  1  0
  4  7  1  0
  6  7  2  0
  7  8  1  0
  4  9  1  0
  6 10  1  0
  1 11  2  0
  9 12  2  0
 11 12  1  0
M  END
>  <ID>  (1) 
conformer_0

$$$$
