
     RDKit          3D

 14 15  0  0  0  0  0  0  0  0999 V2000
   18.7231  -49.7640   51.1575 C   0  0  0  0  0  0  0  0  0  0  0  0
   19.6101  -50.6501   51.6926 C   0  0  0  0  0  0  0  0  0  0  0  0
   20.9651  -50.1457   51.8931 C   0  0  0  0  0  0  0  0  0  0  0  0
   21.9794  -51.1234   52.3920 C   0  0  0  0  0  0  0  0  0  0  0  0
   21.6863  -52.4683   52.4579 C   0  0  0  0  0  0  0  0  0  0  0  0
   19.4846  -52.0373   51.7890 C   0  0  0  0  0  0  0  0  0  0  0  0
   23.2930  -50.6502   52.6230 C   0  0  0  0  0  0  0  0  0  0  0  0
   24.1805  -51.4144   53.2853 N   0  0  0  0  0  0  0  0  0  0  0  0
   23.9858  -52.8450   53.3469 C   0  0  0  0  0  0  0  0  0  0  0  0
   25.2123  -50.6966   53.9824 C   0  0  0  0  0  0  0  0  0  0  0  0
   26.4311  -50.9805   53.7576 O   0  0  0  0  0  0  0  0  0  0  0  0
   25.0048  -49.3929   54.4012 C   0  0  0  0  0  0  0  0  0  0  0  0
   20.4380  -52.8911   52.1520 C   0  0  0  0  0  0  0  0  0  0  0  0
   22.7469  -53.3134   52.9651 C   0  0  0  0  0  0  0  0  0  0  0  0
  1  2  1  0
  2  3  2  0
  3  4  1  0
  4  5  2  0
  2  6  1  0
  4  7  1  0
  7  8  1  0
  8  9  1  0
  8 10  1  0
 10 11  2  0
 10 12  1  0
  5 13  1  0
  6 13  2  0
  5 14  1  0
  9 14  1  0
M  END
>  <ID>  (1) 
conformer_0

$$$$
