
     RDKit          3D

 14 15  0  0  0  0  0  0  0  0999 V2000
   18.4627  -50.6629   51.6654 N   0  0  0  0  0  0  0  0  0  0  0  0
   18.8811  -49.5200   51.4414 C   0  0  0  0  0  0  0  0  0  0  0  0
   18.2011  -48.4988   51.0455 O   0  0  0  0  0  0  0  0  0  0  0  0
   20.2525  -49.2621   51.9195 C   0  0  0  0  0  0  0  0  0  0  0  0
   19.1739  -51.7729   51.9575 C   0  0  0  0  0  0  0  0  0  0  0  0
   21.0646  -50.2934   52.2912 C   0  0  0  0  0  0  0  0  0  0  0  0
   20.5304  -51.5615   52.3419 N   0  0  0  0  0  0  0  0  0  0  0  0
   22.4262  -50.0715   52.6092 C   0  0  0  0  0  0  0  0  0  0  0  0
   22.9244  -48.8432   52.7288 C   0  0  0  0  0  0  0  0  0  0  0  0
   21.9356  -47.8216   52.3974 C   0  0  0  0  0  0  0  0  0  0  0  0
   18.7801  -52.9198   52.1040 O   0  0  0  0  0  0  0  0  0  0  0  0
   21.3150  -52.6839   52.6426 C   0  0  0  0  0  0  0  0  0  0  0  0
   20.7378  -47.9619   52.0106 C   0  0  0  0  0  0  0  0  0  0  0  0
   24.2887  -48.5079   53.1726 C   0  0  0  0  0  0  0  0  0  0  0  0
  1  2  1  0
  2  3  2  0
  2  4  1  0
  1  5  1  0
  4  6  2  0
  5  7  1  0
  6  7  1  0
  6  8  1  0
  8  9  2  0
  9 10  1  0
  5 11  2  0
  7 12  1  0
  4 13  1  0
 10 13  2  0
  9 14  1  0
M  END
>  <ID>  (1) 
conformer_0

$$$$
