
     RDKit          3D

 14 15  0  0  0  0  0  0  0  0999 V2000
   18.6281  -49.0966   51.0457 O   0  0  0  0  0  0  0  0  0  0  0  0
   19.0856  -50.1077   51.4736 C   0  0  0  0  0  0  0  0  0  0  0  0
   18.5853  -51.3117   51.5369 N   0  0  0  0  0  0  0  0  0  0  0  0
   20.4837  -49.9288   51.9061 C   0  0  0  0  0  0  0  0  0  0  0  0
   21.2066  -51.0833   52.3261 C   0  0  0  0  0  0  0  0  0  0  0  0
   20.5382  -52.3311   52.3101 C   0  0  0  0  0  0  0  0  0  0  0  0
   21.2502  -53.4679   52.7615 C   0  0  0  0  0  0  0  0  0  0  0  0
   19.2324  -52.3926   51.9102 C   0  0  0  0  0  0  0  0  0  0  0  0
   22.5307  -50.8678   52.7319 C   0  0  0  0  0  0  0  0  0  0  0  0
   22.6635  -53.4253   52.6813 C   0  0  0  0  0  0  0  0  0  0  0  0
   23.4748  -54.5291   53.0824 O   0  0  0  0  0  0  0  0  0  0  0  0
   21.0696  -48.6669   51.8436 C   0  0  0  0  0  0  0  0  0  0  0  0
   23.3320  -52.0879   52.9827 C   0  0  0  0  0  0  0  0  0  0  0  0
   23.0138  -55.4857   53.5411 C   0  0  0  0  0  0  0  0  0  0  0  0
  1  2  2  0
  2  3  1  0
  2  4  1  0
  4  5  2  0
  5  6  1  0
  6  7  1  0
  3  8  2  0
  6  8  2  0
  5  9  1  0
  7 10  2  0
 10 11  1  0
  4 12  1  0
  9 13  2  0
 10 13  1  0
 11 14  1  0
M  END
>  <ID>  (1) 
conformer_0

$$$$
