
     RDKit          3D

 15 16  0  0  0  0  0  0  0  0999 V2000
   19.8238  -51.3050   51.7390 C   0  0  0  0  0  0  0  0  0  0  0  0
   20.6048  -52.0265   51.9583 C   0  0  0  0  0  0  0  0  0  0  0  0
   21.9282  -51.6341   52.1109 C   0  0  0  0  0  0  0  0  0  0  0  0
   19.9444  -49.8509   51.6401 C   0  0  0  0  0  0  0  0  0  0  0  0
   23.0287  -52.5024   52.5112 C   0  0  0  0  0  0  0  0  0  0  0  0
   22.9399  -53.7428   52.3570 C   0  0  0  0  0  0  0  0  0  0  0  0
   22.1383  -50.1799   52.0545 C   0  0  0  0  0  0  0  0  0  0  0  0
   23.4511  -49.5835   52.3480 N   0  0  0  0  0  0  0  0  0  0  0  0
   24.0089  -52.2075   53.4136 N   0  0  0  0  0  0  0  0  0  0  0  0
   21.1022  -49.2271   51.7977 C   0  0  0  0  0  0  0  0  0  0  0  0
   23.9123  -54.7332   52.6521 C   0  0  0  0  0  0  0  0  0  0  0  0
   24.9331  -54.3078   53.4376 C   0  0  0  0  0  0  0  0  0  0  0  0
   18.8063  -49.0116   51.3348 O   0  0  0  0  0  0  0  0  0  0  0  0
   25.9642  -55.1911   53.9066 O   0  0  0  0  0  0  0  0  0  0  0  0
   25.0229  -53.0519   53.7890 C   0  0  0  0  0  0  0  0  0  0  0  0
  1  2  2  0
  2  3  1  0
  1  4  1  0
  3  5  1  0
  5  6  2  0
  3  7  2  0
  7  8  1  0
  5  9  1  0
  4 10  2  0
  7 10  1  0
  6 11  1  0
 11 12  2  0
  4 13  1  0
 12 14  1  0
  9 15  2  0
 12 15  1  0
M  END
>  <ID>  (1) 
conformer_0

$$$$
