
     RDKit          3D

 16 18  0  0  0  0  0  0  0  0999 V2000
   18.6281  -49.0966   51.0457 O   0  0  0  0  0  0  0  0  0  0  0  0
   19.5959  -49.7494   51.5262 C   0  0  0  0  0  0  0  0  0  0  0  0
   20.8047  -49.0221   51.7470 C   0  0  0  0  0  0  0  0  0  0  0  0
   21.9557  -49.6903   52.1420 C   0  0  0  0  0  0  0  0  0  0  0  0
   21.9001  -51.0763   52.2159 C   0  0  0  0  0  0  0  0  0  0  0  0
   23.0818  -48.9795   52.4178 C   0  0  0  0  0  0  0  0  0  0  0  0
   23.0257  -51.8550   52.6417 C   0  0  0  0  0  0  0  0  0  0  0  0
   22.8791  -53.2005   52.6030 C   0  0  0  0  0  0  0  0  0  0  0  0
   24.1522  -49.6387   52.8861 C   0  0  0  0  0  0  0  0  0  0  0  0
   21.4373  -53.4158   52.3098 C   0  0  0  0  0  0  0  0  0  0  0  0
   25.3851  -49.0054   53.2872 C   0  0  0  0  0  0  0  0  0  0  0  0
   19.5372  -51.0587   51.9627 C   0  0  0  0  0  0  0  0  0  0  0  0
   24.1941  -51.0678   52.9921 C   0  0  0  0  0  0  0  0  0  0  0  0
   20.7844  -51.7877   52.1535 C   0  0  0  0  0  0  0  0  0  0  0  0
   25.3286  -47.7028   53.4630 O   0  0  0  0  0  0  0  0  0  0  0  0
   26.3463  -49.6747   53.6300 O   0  0  0  0  0  0  0  0  0  0  0  0
  1  2  1  0
  2  3  1  0
  3  4  2  0
  4  5  1  0
  4  6  1  0
  5  7  1  0
  7  8  2  0
  6  9  2  0
  8 10  1  0
  9 11  1  0
  2 12  2  0
  7 13  1  0
  9 13  1  0
  5 14  1  0
 10 14  2  0
 12 14  1  0
 11 15  2  0
 11 16  1  0
M  END
>  <ID>  (1) 
conformer_0

$$$$
