
     RDKit          3D

 14 15  0  0  0  0  0  0  0  0999 V2000
   18.7485  -50.6341   51.0873 O   0  0  0  0  0  0  0  0  0  0  0  0
   19.5496  -51.1859   51.7701 C   0  0  0  0  0  0  0  0  0  0  0  0
   20.7793  -50.6417   52.0806 C   0  0  0  0  0  0  0  0  0  0  0  0
   21.9183  -51.4450   52.3773 C   0  0  0  0  0  0  0  0  0  0  0  0
   20.9832  -49.2417   52.1917 C   0  0  0  0  0  0  0  0  0  0  0  0
   22.2676  -48.7161   52.5633 C   0  0  0  0  0  0  0  0  0  0  0  0
   23.2696  -49.7718   52.8579 C   0  0  0  0  0  0  0  0  0  0  0  0
   21.6524  -52.8888   52.2546 C   0  0  0  0  0  0  0  0  0  0  0  0
   24.5987  -49.1730   53.2641 C   0  0  0  0  0  0  0  0  0  0  0  0
   25.4867  -50.0324   53.7274 O   0  0  0  0  0  0  0  0  0  0  0  0
   19.5986  -52.5745   51.7051 N   0  0  0  0  0  0  0  0  0  0  0  0
   23.1389  -51.0194   52.7766 C   0  0  0  0  0  0  0  0  0  0  0  0
   24.7329  -47.9411   53.5679 O   0  0  0  0  0  0  0  0  0  0  0  0
   20.5082  -53.3970   52.0251 C   0  0  0  0  0  0  0  0  0  0  0  0
  1  2  2  0
  2  3  1  0
  3  4  2  0
  3  5  1  0
  5  6  2  0
  6  7  1  0
  4  8  1  0
  7  9  1  0
  9 10  2  0
  2 11  1  0
  4 12  1  0
  7 12  2  0
  9 13  1  0
  8 14  2  0
 11 14  1  0
M  END
>  <ID>  (1) 
conformer_0

$$$$
