
     RDKit          3D

 16 17  0  0  0  0  0  0  0  0999 V2000
   18.6592  -50.3900   51.0367 O   0  0  0  0  0  0  0  0  0  0  0  0
   19.6717  -49.9332   51.4649 C   0  0  0  0  0  0  0  0  0  0  0  0
   20.0599  -48.6398   51.4802 C   0  0  0  0  0  0  0  0  0  0  0  0
   20.7219  -50.8527   51.9264 C   0  0  0  0  0  0  0  0  0  0  0  0
   22.0306  -50.3594   52.1328 C   0  0  0  0  0  0  0  0  0  0  0  0
   20.5389  -52.1924   51.9371 C   0  0  0  0  0  0  0  0  0  0  0  0
   19.3050  -52.7450   51.7985 O   0  0  0  0  0  0  0  0  0  0  0  0
   21.6325  -52.9716   52.1580 C   0  0  0  0  0  0  0  0  0  0  0  0
   22.2536  -48.8839   52.2422 C   0  0  0  0  0  0  0  0  0  0  0  0
   19.0169  -47.7595   51.1968 O   0  0  0  0  0  0  0  0  0  0  0  0
   21.2045  -48.1125   51.9117 C   0  0  0  0  0  0  0  0  0  0  0  0
   23.5612  -48.5442   52.2660 O   0  0  0  0  0  0  0  0  0  0  0  0
   23.0345  -51.0499   52.5761 C   0  0  0  0  0  0  0  0  0  0  0  0
   21.3821  -54.4342   52.2142 O   0  0  0  0  0  0  0  0  0  0  0  0
   24.2675  -50.6042   52.9630 O   0  0  0  0  0  0  0  0  0  0  0  0
   22.8548  -52.5191   52.5205 C   0  0  0  0  0  0  0  0  0  0  0  0
  1  2  2  0
  2  3  1  0
  2  4  1  0
  4  5  2  0
  4  6  1  0
  6  7  1  0
  6  8  2  0
  5  9  1  0
  3 10  1  0
  3 11  2  0
  9 11  1  0
  9 12  1  0
  5 13  1  0
  8 14  1  0
 13 15  1  0
  8 16  1  0
 13 16  2  0
M  END
>  <ID>  (1) 
conformer_0

$$$$
