
     RDKit          3D

 11 12  0  0  0  0  0  0  0  0999 V2000
   18.4627  -50.6629   51.6654 N   0  0  0  0  0  0  0  0  0  0  0  0
   19.2719  -51.4922   51.9102 C   0  0  0  0  0  0  0  0  0  0  0  0
   20.6439  -51.0582   51.9128 C   0  0  0  0  0  0  0  0  0  0  0  0
   19.1911  -52.8086   51.9631 N   0  0  0  0  0  0  0  0  0  0  0  0
   20.5291  -53.2488   52.2289 N   0  0  0  0  0  0  0  0  0  0  0  0
   18.6948  -49.3857   51.3728 C   0  0  0  0  0  0  0  0  0  0  0  0
   21.3280  -52.2369   52.1746 C   0  0  0  0  0  0  0  0  0  0  0  0
   20.7202  -54.5422   52.6725 C   0  0  0  0  0  0  0  0  0  0  0  0
   22.5101  -52.4003   52.3366 O   0  0  0  0  0  0  0  0  0  0  0  0
   19.9246  -48.8716   51.4433 C   0  0  0  0  0  0  0  0  0  0  0  0
   20.9493  -49.7284   51.6948 C   0  0  0  0  0  0  0  0  0  0  0  0
  1  2  1  0
  2  3  1  0
  2  4  2  0
  4  5  1  0
  1  6  2  0
  3  7  1  0
  5  7  1  0
  5  8  1  0
  7  9  2  0
  6 10  1  0
  3 11  2  0
 10 11  2  0
M  END
>  <ID>  (1) 
conformer_0

$$$$
