
     RDKit          3D

 15 17  0  0  0  0  0  0  0  0999 V2000
   18.6199  -50.2854   51.3439 C   0  0  0  0  0  0  0  0  0  0  0  0
   19.2355  -49.1260   51.3379 C   0  0  0  0  0  0  0  0  0  0  0  0
   20.5115  -49.2096   51.6534 C   0  0  0  0  0  0  0  0  0  0  0  0
   19.1281  -51.4570   51.6678 C   0  0  0  0  0  0  0  0  0  0  0  0
   20.5251  -51.3878   52.0462 C   0  0  0  0  0  0  0  0  0  0  0  0
   21.2206  -50.2951   52.0348 C   0  0  0  0  0  0  0  0  0  0  0  0
   21.0711  -52.6455   52.4179 C   0  0  0  0  0  0  0  0  0  0  0  0
   22.5775  -50.2473   52.3881 C   0  0  0  0  0  0  0  0  0  0  0  0
   23.3592  -49.1108   52.4274 C   0  0  0  0  0  0  0  0  0  0  0  0
   24.6001  -49.1758   52.9634 C   0  0  0  0  0  0  0  0  0  0  0  0
   22.9348  -51.4129   53.0823 C   0  0  0  0  0  0  0  0  0  0  0  0
   25.5033  -48.0174   52.9751 O   0  0  0  0  0  0  0  0  0  0  0  0
   22.3290  -52.5870   52.8963 C   0  0  0  0  0  0  0  0  0  0  0  0
   24.4224  -51.2888   53.5084 C   0  0  0  0  0  0  0  0  0  0  0  0
   25.1273  -50.2263   53.5390 C   0  0  0  0  0  0  0  0  0  0  0  0
  1  2  1  0
  2  3  2  0
  1  4  2  0
  4  5  1  0
  3  6  1  0
  5  6  2  0
  5  7  1  0
  6  8  1  0
  8  9  1  0
  9 10  2  0
  8 11  2  0
 10 12  1  0
  7 13  2  0
 11 13  1  0
 11 14  1  0
 10 15  1  0
 14 15  2  0
M  END
>  <ID>  (1) 
conformer_0

$$$$
