
     RDKit          3D

 11 12  0  0  0  0  0  0  0  0999 V2000
   18.7485  -50.6341   51.0873 O   0  0  0  0  0  0  0  0  0  0  0  0
   19.8723  -50.7071   51.6321 C   0  0  0  0  0  0  0  0  0  0  0  0
   20.3429  -51.9272   51.9485 C   0  0  0  0  0  0  0  0  0  0  0  0
   21.6499  -52.0212   52.3393 C   0  0  0  0  0  0  0  0  0  0  0  0
   20.6472  -49.5553   51.6878 C   0  0  0  0  0  0  0  0  0  0  0  0
   22.2190  -53.2576   52.7530 C   0  0  0  0  0  0  0  0  0  0  0  0
   21.9116  -49.6084   52.0970 C   0  0  0  0  0  0  0  0  0  0  0  0
   22.4557  -50.8217   52.4654 C   0  0  0  0  0  0  0  0  0  0  0  0
   23.5941  -53.2608   52.7990 C   0  0  0  0  0  0  0  0  0  0  0  0
   23.7769  -50.9347   52.8984 C   0  0  0  0  0  0  0  0  0  0  0  0
   24.4077  -52.1631   52.9500 C   0  0  0  0  0  0  0  0  0  0  0  0
  1  2  2  0
  2  3  1  0
  3  4  2  0
  2  5  1  0
  4  6  1  0
  5  7  2  0
  4  8  1  0
  7  8  1  0
  6  9  2  0
  8 10  1  0
  9 11  1  0
 10 11  2  0
M  END
>  <ID>  (1) 
conformer_0

$$$$
