
     RDKit          3D

 12 13  0  0  0  0  0  0  0  0999 V2000
   18.6281  -49.0966   51.0457 O   0  0  0  0  0  0  0  0  0  0  0  0
   19.5959  -49.7494   51.5262 C   0  0  0  0  0  0  0  0  0  0  0  0
   20.8047  -49.0221   51.7470 C   0  0  0  0  0  0  0  0  0  0  0  0
   21.9557  -49.6903   52.1420 C   0  0  0  0  0  0  0  0  0  0  0  0
   19.4278  -51.0597   51.9482 C   0  0  0  0  0  0  0  0  0  0  0  0
   21.7942  -51.0835   52.4986 C   0  0  0  0  0  0  0  0  0  0  0  0
   22.9324  -51.8174   52.9634 N   0  0  0  0  0  0  0  0  0  0  0  0
   24.0318  -51.2182   53.2282 C   0  0  0  0  0  0  0  0  0  0  0  0
   20.5196  -51.8113   52.3952 C   0  0  0  0  0  0  0  0  0  0  0  0
   25.0366  -52.1608   53.6601 C   0  0  0  0  0  0  0  0  0  0  0  0
   23.0291  -53.2035   52.7775 C   0  0  0  0  0  0  0  0  0  0  0  0
   24.3380  -53.4655   53.2836 C   0  0  0  0  0  0  0  0  0  0  0  0
  1  2  1  0
  2  3  1  0
  3  4  2  0
  2  5  2  0
  4  6  1  0
  6  7  1  0
  7  8  1  0
  5  9  1  0
  6  9  2  0
  8 10  2  0
  7 11  1  0
 10 12  1  0
 11 12  2  0
M  END
>  <ID>  (1) 
conformer_0

$$$$
