
     RDKit          3D

 15 17  0  0  0  0  0  0  0  0999 V2000
   18.4627  -50.6629   51.6654 N   0  0  0  0  0  0  0  0  0  0  0  0
   18.8811  -49.5200   51.4414 C   0  0  0  0  0  0  0  0  0  0  0  0
   18.2011  -48.4988   51.0455 O   0  0  0  0  0  0  0  0  0  0  0  0
   20.2525  -49.2621   51.9195 C   0  0  0  0  0  0  0  0  0  0  0  0
   19.1739  -51.7729   51.9575 C   0  0  0  0  0  0  0  0  0  0  0  0
   21.0646  -50.2934   52.2912 C   0  0  0  0  0  0  0  0  0  0  0  0
   20.5304  -51.5615   52.3419 N   0  0  0  0  0  0  0  0  0  0  0  0
   22.4262  -50.0715   52.6092 C   0  0  0  0  0  0  0  0  0  0  0  0
   18.7559  -52.8658   52.1485 O   0  0  0  0  0  0  0  0  0  0  0  0
   22.9349  -48.8207   52.7687 C   0  0  0  0  0  0  0  0  0  0  0  0
   22.0990  -47.7377   52.3381 C   0  0  0  0  0  0  0  0  0  0  0  0
   20.8040  -47.8487   51.9841 C   0  0  0  0  0  0  0  0  0  0  0  0
   23.2708  -51.2045   52.8532 C   0  0  0  0  0  0  0  0  0  0  0  0
   21.2024  -52.7650   52.6599 C   0  0  0  0  0  0  0  0  0  0  0  0
   22.6676  -52.4394   52.8253 C   0  0  0  0  0  0  0  0  0  0  0  0
  1  2  1  0
  2  3  2  0
  2  4  1  0
  1  5  1  0
  4  6  2  0
  5  7  1  0
  6  7  1  0
  6  8  1  0
  5  9  2  0
  8 10  2  0
 10 11  1  0
  4 12  1  0
 11 12  2  0
  8 13  1  0
  7 14  1  0
 13 15  2  0
 14 15  2  0
M  END
>  <ID>  (1) 
conformer_0

$$$$
