
     RDKit          3D

 16 18  0  0  0  0  0  0  0  0999 V2000
   18.7575  -50.8466   51.6579 C   0  0  0  0  0  0  0  0  0  0  0  0
   19.7945  -51.6738   51.9183 C   0  0  0  0  0  0  0  0  0  0  0  0
   21.1246  -51.2547   52.0028 C   0  0  0  0  0  0  0  0  0  0  0  0
   22.1587  -52.1284   52.3357 C   0  0  0  0  0  0  0  0  0  0  0  0
   23.3717  -51.4876   52.6033 C   0  0  0  0  0  0  0  0  0  0  0  0
   23.5935  -50.0497   52.6247 C   0  0  0  0  0  0  0  0  0  0  0  0
   22.4223  -49.3000   52.1695 C   0  0  0  0  0  0  0  0  0  0  0  0
   21.9962  -53.3962   52.3444 C   0  0  0  0  0  0  0  0  0  0  0  0
   21.2324  -49.8693   51.9612 C   0  0  0  0  0  0  0  0  0  0  0  0
   20.9604  -54.0667   52.2646 C   0  0  0  0  0  0  0  0  0  0  0  0
   24.7609  -49.4502   52.9800 C   0  0  0  0  0  0  0  0  0  0  0  0
   20.1405  -49.0273   51.6213 C   0  0  0  0  0  0  0  0  0  0  0  0
   19.5428  -53.2003   51.9540 C   0  0  0  0  0  0  0  0  0  0  0  0
   24.8764  -48.1489   52.9702 O   0  0  0  0  0  0  0  0  0  0  0  0
   18.9086  -49.6445   51.4840 C   0  0  0  0  0  0  0  0  0  0  0  0
   25.7018  -50.0602   53.5245 O   0  0  0  0  0  0  0  0  0  0  0  0
  1  2  1  0
  2  3  2  0
  3  4  1  0
  4  5  1  0
  5  6  1  0
  6  7  2  0
  4  8  2  0
  3  9  1  0
  7  9  1  0
  8 10  1  0
  6 11  1  0
  9 12  2  0
  2 13  1  0
 10 13  2  0
 11 14  2  0
  1 15  2  0
 12 15  1  0
 11 16  1  0
M  END
>  <ID>  (1) 
conformer_0

$$$$
