
     RDKit          3D

 14 15  0  0  0  0  0  0  0  0999 V2000
   18.7485  -50.6341   51.0873 O   0  0  0  0  0  0  0  0  0  0  0  0
   19.7152  -50.0423   51.4849 C   0  0  0  0  0  0  0  0  0  0  0  0
   20.8139  -50.9657   51.8391 C   0  0  0  0  0  0  0  0  0  0  0  0
   20.7056  -52.2576   51.9444 C   0  0  0  0  0  0  0  0  0  0  0  0
   21.5327  -53.0388   52.2056 C   0  0  0  0  0  0  0  0  0  0  0  0
   21.3440  -54.4805   52.3228 C   0  0  0  0  0  0  0  0  0  0  0  0
   22.0303  -50.3460   52.1908 C   0  0  0  0  0  0  0  0  0  0  0  0
   23.0542  -51.1509   52.6955 C   0  0  0  0  0  0  0  0  0  0  0  0
   22.9000  -52.4842   52.6668 C   0  0  0  0  0  0  0  0  0  0  0  0
   19.5793  -48.8141   51.7507 O   0  0  0  0  0  0  0  0  0  0  0  0
   20.2097  -54.9395   52.4555 O   0  0  0  0  0  0  0  0  0  0  0  0
   23.9064  -53.3501   53.0618 C   0  0  0  0  0  0  0  0  0  0  0  0
   23.6107  -54.7024   53.0440 C   0  0  0  0  0  0  0  0  0  0  0  0
   22.3942  -55.3060   52.9570 C   0  0  0  0  0  0  0  0  0  0  0  0
  1  2  2  0
  2  3  1  0
  3  4  1  0
  4  5  2  0
  5  6  1  0
  3  7  2  0
  7  8  1  0
  5  9  1  0
  8  9  2  0
  2 10  1  0
  6 11  1  0
  9 12  1  0
 12 13  2  0
  6 14  2  0
 13 14  1  0
M  END
>  <ID>  (1) 
conformer_0

$$$$
