
     RDKit          3D

 15 16  0  0  0  0  0  0  0  0999 V2000
   18.7231  -49.7640   51.1575 C   0  0  0  0  0  0  0  0  0  0  0  0
   19.6101  -50.6501   51.6926 C   0  0  0  0  0  0  0  0  0  0  0  0
   20.9651  -50.1457   51.8931 C   0  0  0  0  0  0  0  0  0  0  0  0
   21.9794  -51.1234   52.3920 C   0  0  0  0  0  0  0  0  0  0  0  0
   21.6863  -52.4683   52.4579 C   0  0  0  0  0  0  0  0  0  0  0  0
   23.2539  -50.5979   52.6619 C   0  0  0  0  0  0  0  0  0  0  0  0
   23.6663  -49.2170   52.5037 C   0  0  0  0  0  0  0  0  0  0  0  0
   22.8307  -48.3889   51.8928 O   0  0  0  0  0  0  0  0  0  0  0  0
   24.8436  -48.7751   52.7882 O   0  0  0  0  0  0  0  0  0  0  0  0
   24.0879  -51.4670   53.2662 C   0  0  0  0  0  0  0  0  0  0  0  0
   20.4623  -53.0524   52.0677 C   0  0  0  0  0  0  0  0  0  0  0  0
   23.8177  -52.7847   53.4159 C   0  0  0  0  0  0  0  0  0  0  0  0
   22.6242  -53.3158   53.0951 C   0  0  0  0  0  0  0  0  0  0  0  0
   20.1109  -54.3059   52.1380 O   0  0  0  0  0  0  0  0  0  0  0  0
   19.4476  -52.0815   51.6771 N   0  0  0  0  0  0  0  0  0  0  0  0
  1  2  1  0
  2  3  2  0
  3  4  1  0
  4  5  2  0
  4  6  1  0
  6  7  1  0
  7  8  2  0
  7  9  1  0
  6 10  2  0
  5 11  1  0
 10 12  1  0
  5 13  1  0
 12 13  2  0
 11 14  2  0
  2 15  1  0
 11 15  1  0
M  END
>  <ID>  (1) 
conformer_0

$$$$
