
     RDKit          3D

 14 16  0  0  0  0  0  0  0  0999 V2000
   18.7575  -50.8466   51.6579 C   0  0  0  0  0  0  0  0  0  0  0  0
   19.7945  -51.6738   51.9183 C   0  0  0  0  0  0  0  0  0  0  0  0
   21.1246  -51.2547   52.0028 C   0  0  0  0  0  0  0  0  0  0  0  0
   22.1587  -52.1284   52.3357 C   0  0  0  0  0  0  0  0  0  0  0  0
   23.3717  -51.4876   52.6033 C   0  0  0  0  0  0  0  0  0  0  0  0
   23.5935  -50.0497   52.6247 C   0  0  0  0  0  0  0  0  0  0  0  0
   22.4223  -49.3000   52.1695 C   0  0  0  0  0  0  0  0  0  0  0  0
   21.3132  -49.8484   51.8630 C   0  0  0  0  0  0  0  0  0  0  0  0
   22.4068  -53.3243   51.9159 C   0  0  0  0  0  0  0  0  0  0  0  0
   20.3125  -48.9985   51.5194 C   0  0  0  0  0  0  0  0  0  0  0  0
   23.4121  -54.1720   52.2555 C   0  0  0  0  0  0  0  0  0  0  0  0
   24.4284  -52.3233   53.0635 C   0  0  0  0  0  0  0  0  0  0  0  0
   24.4478  -53.6107   52.8900 C   0  0  0  0  0  0  0  0  0  0  0  0
   19.0535  -49.4855   51.4764 C   0  0  0  0  0  0  0  0  0  0  0  0
  1  2  1  0
  2  3  2  0
  3  4  1  0
  4  5  1  0
  5  6  1  0
  6  7  2  0
  3  8  1  0
  7  8  1  0
  4  9  2  0
  8 10  2  0
  9 11  1  0
  5 12  2  0
 11 13  2  0
 12 13  1  0
  1 14  2  0
 10 14  1  0
M  END
>  <ID>  (1) 
conformer_0

$$$$
