
     RDKit          3D

 13 14  0  0  0  0  0  0  0  0999 V2000
   18.7485  -50.6341   51.0873 O   0  0  0  0  0  0  0  0  0  0  0  0
   19.8723  -50.7071   51.6321 C   0  0  0  0  0  0  0  0  0  0  0  0
   20.2607  -51.7335   52.1414 C   0  0  0  0  0  0  0  0  0  0  0  0
   20.5196  -49.3987   51.6909 N   0  0  0  0  0  0  0  0  0  0  0  0
   21.7241  -49.3517   52.2411 C   0  0  0  0  0  0  0  0  0  0  0  0
   22.2908  -50.5097   52.7339 C   0  0  0  0  0  0  0  0  0  0  0  0
   21.6226  -51.6743   52.6437 C   0  0  0  0  0  0  0  0  0  0  0  0
   23.6168  -50.4246   53.1543 N   0  0  0  0  0  0  0  0  0  0  0  0
   24.4610  -51.4488   53.5552 C   0  0  0  0  0  0  0  0  0  0  0  0
   24.1075  -49.1780   53.5452 C   0  0  0  0  0  0  0  0  0  0  0  0
   25.6933  -51.1854   54.0075 C   0  0  0  0  0  0  0  0  0  0  0  0
   19.6429  -52.9354   52.1660 C   0  0  0  0  0  0  0  0  0  0  0  0
   25.4662  -49.3006   54.0636 C   0  0  0  0  0  0  0  0  0  0  0  0
  1  2  2  0
  2  3  1  0
  2  4  1  0
  4  5  1  0
  5  6  2  0
  3  7  2  0
  6  7  1  0
  6  8  1  0
  8  9  1  0
  8 10  1  0
  9 11  1  0
  3 12  1  0
 10 13  1  0
 11 13  1  0
M  END
>  <ID>  (1) 
conformer_0

$$$$
