
     RDKit          3D

 15 17  0  0  0  0  0  0  0  0999 V2000
   18.7575  -50.8466   51.6579 C   0  0  0  0  0  0  0  0  0  0  0  0
   19.7945  -51.6738   51.9183 C   0  0  0  0  0  0  0  0  0  0  0  0
   21.1246  -51.2547   52.0028 C   0  0  0  0  0  0  0  0  0  0  0  0
   22.1587  -52.1284   52.3357 C   0  0  0  0  0  0  0  0  0  0  0  0
   19.0593  -49.5274   51.2875 N   0  0  0  0  0  0  0  0  0  0  0  0
   23.4210  -51.5042   52.6824 C   0  0  0  0  0  0  0  0  0  0  0  0
   22.3144  -53.3123   52.0204 C   0  0  0  0  0  0  0  0  0  0  0  0
   23.4860  -53.9282   52.5760 C   0  0  0  0  0  0  0  0  0  0  0  0
   23.3590  -50.0060   52.9796 C   0  0  0  0  0  0  0  0  0  0  0  0
   23.6115  -55.4371   52.4620 C   0  0  0  0  0  0  0  0  0  0  0  0
   20.2771  -49.0101   51.5427 C   0  0  0  0  0  0  0  0  0  0  0  0
   21.3160  -49.7326   51.9319 C   0  0  0  0  0  0  0  0  0  0  0  0
   24.2667  -52.9058   53.0700 C   0  0  0  0  0  0  0  0  0  0  0  0
   22.5923  -49.2875   52.2008 C   0  0  0  0  0  0  0  0  0  0  0  0
   25.4425  -52.8114   53.6496 C   0  0  0  0  0  0  0  0  0  0  0  0
  1  2  1  0
  2  3  2  0
  3  4  1  0
  1  5  2  0
  4  6  1  0
  4  7  2  0
  7  8  1  0
  6  9  1  0
  8 10  1  0
  5 11  1  0
  3 12  1  0
 11 12  2  0
  6 13  1  0
  8 13  2  0
  9 14  1  0
 12 14  1  0
 13 15  1  0
M  END
>  <ID>  (1) 
conformer_0

$$$$
