
     RDKit          3D

 13 14  0  0  0  0  0  0  0  0999 V2000
   18.6281  -49.0966   51.0457 O   0  0  0  0  0  0  0  0  0  0  0  0
   19.5959  -49.7494   51.5262 C   0  0  0  0  0  0  0  0  0  0  0  0
   19.6443  -50.8799   51.8940 C   0  0  0  0  0  0  0  0  0  0  0  0
   20.8631  -51.4459   52.1285 C   0  0  0  0  0  0  0  0  0  0  0  0
   20.8580  -52.8836   52.5503 C   0  0  0  0  0  0  0  0  0  0  0  0
   19.8314  -53.4812   52.9164 O   0  0  0  0  0  0  0  0  0  0  0  0
   20.8206  -48.8479   51.4895 C   0  0  0  0  0  0  0  0  0  0  0  0
   21.9018  -50.8718   52.0569 C   0  0  0  0  0  0  0  0  0  0  0  0
   20.8056  -47.5449   51.1096 O   0  0  0  0  0  0  0  0  0  0  0  0
   23.2426  -51.5349   52.3841 C   0  0  0  0  0  0  0  0  0  0  0  0
   22.0867  -53.3233   52.8650 C   0  0  0  0  0  0  0  0  0  0  0  0
   23.1506  -52.7325   52.6863 C   0  0  0  0  0  0  0  0  0  0  0  0
   22.0921  -49.4702   51.7389 C   0  0  0  0  0  0  0  0  0  0  0  0
  1  2  1  0
  2  3  1  0
  3  4  2  0
  4  5  1  0
  5  6  1  0
  2  7  2  0
  4  8  1  0
  7  9  1  0
  8 10  1  0
  5 11  2  0
 10 12  2  0
 11 12  1  0
  7 13  1  0
  8 13  2  0
M  END
>  <ID>  (1) 
conformer_0

$$$$
