
     RDKit          3D

 14 15  0  0  0  0  0  0  0  0999 V2000
   18.6281  -49.0966   51.0457 O   0  0  0  0  0  0  0  0  0  0  0  0
   19.0856  -50.1077   51.4736 C   0  0  0  0  0  0  0  0  0  0  0  0
   18.5853  -51.3117   51.5369 N   0  0  0  0  0  0  0  0  0  0  0  0
   20.4837  -49.9288   51.9061 C   0  0  0  0  0  0  0  0  0  0  0  0
   21.2066  -51.0833   52.3261 C   0  0  0  0  0  0  0  0  0  0  0  0
   20.5382  -52.3311   52.3101 C   0  0  0  0  0  0  0  0  0  0  0  0
   22.5316  -50.9738   52.7741 N   0  0  0  0  0  0  0  0  0  0  0  0
   23.3380  -52.0540   52.8026 C   0  0  0  0  0  0  0  0  0  0  0  0
   24.5631  -51.9146   53.1543 O   0  0  0  0  0  0  0  0  0  0  0  0
   21.1202  -48.7649   51.9537 C   0  0  0  0  0  0  0  0  0  0  0  0
   19.2482  -52.3847   51.9203 C   0  0  0  0  0  0  0  0  0  0  0  0
   25.2719  -52.9093   53.6637 C   0  0  0  0  0  0  0  0  0  0  0  0
   21.5961  -53.3256   52.6729 C   0  0  0  0  0  0  0  0  0  0  0  0
   22.7397  -53.2478   52.8875 C   0  0  0  0  0  0  0  0  0  0  0  0
  1  2  2  0
  2  3  1  0
  2  4  1  0
  4  5  2  0
  5  6  1  0
  5  7  1  0
  7  8  1  0
  8  9  1  0
  4 10  1  0
  3 11  1  0
  6 11  1  0
  9 12  1  0
  6 13  2  0
  8 14  2  0
 13 14  1  0
M  END
>  <ID>  (1) 
conformer_0

$$$$
