
     RDKit          3D

 10 11  0  0  0  0  0  0  0  0999 V2000
   19.0696  -49.9960   51.2991 C   0  0  0  0  0  0  0  0  0  0  0  0
   19.8624  -50.9528   51.7586 C   0  0  0  0  0  0  0  0  0  0  0  0
   19.7034  -52.0591   52.0575 C   0  0  0  0  0  0  0  0  0  0  0  0
   21.1546  -50.3159   51.7461 C   0  0  0  0  0  0  0  0  0  0  0  0
   19.2419  -48.6543   50.9369 N   0  0  0  0  0  0  0  0  0  0  0  0
   22.2144  -51.1107   52.2894 C   0  0  0  0  0  0  0  0  0  0  0  0
   21.2738  -48.9930   51.3840 C   0  0  0  0  0  0  0  0  0  0  0  0
   20.4599  -48.3026   51.1267 N   0  0  0  0  0  0  0  0  0  0  0  0
   21.9381  -52.4292   52.6836 C   0  0  0  0  0  0  0  0  0  0  0  0
   20.6858  -52.8844   52.5273 C   0  0  0  0  0  0  0  0  0  0  0  0
  1  2  1  0
  2  3  1  0
  2  4  2  0
  1  5  2  0
  4  6  1  0
  4  7  1  0
  5  8  1  0
  7  8  2  0
  6  9  2  0
  3 10  2  0
  9 10  1  0
M  END
>  <ID>  (1) 
conformer_0

$$$$
