
     RDKit          3D

 12 13  0  0  0  0  0  0  0  0999 V2000
   18.6281  -49.0966   51.0457 O   0  0  0  0  0  0  0  0  0  0  0  0
   19.0856  -50.1077   51.4736 C   0  0  0  0  0  0  0  0  0  0  0  0
   18.5853  -51.3117   51.5369 N   0  0  0  0  0  0  0  0  0  0  0  0
   20.4837  -49.9288   51.9061 C   0  0  0  0  0  0  0  0  0  0  0  0
   21.2066  -51.0833   52.3261 C   0  0  0  0  0  0  0  0  0  0  0  0
   20.5382  -52.3311   52.3101 C   0  0  0  0  0  0  0  0  0  0  0  0
   21.2502  -53.4679   52.7615 C   0  0  0  0  0  0  0  0  0  0  0  0
   19.2711  -52.4111   51.9103 C   0  0  0  0  0  0  0  0  0  0  0  0
   21.0338  -48.6315   51.9152 N   0  0  0  0  0  0  0  0  0  0  0  0
   22.5291  -50.9214   52.7452 N   0  0  0  0  0  0  0  0  0  0  0  0
   23.2670  -52.0370   53.0021 C   0  0  0  0  0  0  0  0  0  0  0  0
   22.6401  -53.2562   53.0344 C   0  0  0  0  0  0  0  0  0  0  0  0
  1  2  2  0
  2  3  1  0
  2  4  1  0
  4  5  2  0
  5  6  1  0
  6  7  1  0
  3  8  2  0
  6  8  2  0
  4  9  1  0
  5 10  1  0
 10 11  2  0
  7 12  2  0
 11 12  1  0
M  END
>  <ID>  (1) 
conformer_0

$$$$
