
     RDKit          3D

 14 15  0  0  0  0  0  0  0  0999 V2000
   18.7231  -49.7640   51.1575 C   0  0  0  0  0  0  0  0  0  0  0  0
   19.6101  -50.6501   51.6926 C   0  0  0  0  0  0  0  0  0  0  0  0
   20.9651  -50.1457   51.8931 C   0  0  0  0  0  0  0  0  0  0  0  0
   21.9794  -51.1234   52.3920 C   0  0  0  0  0  0  0  0  0  0  0  0
   21.6863  -52.4683   52.4579 C   0  0  0  0  0  0  0  0  0  0  0  0
   23.2539  -50.5979   52.6619 C   0  0  0  0  0  0  0  0  0  0  0  0
   23.6663  -49.2170   52.5037 C   0  0  0  0  0  0  0  0  0  0  0  0
   22.8307  -48.3889   51.8928 O   0  0  0  0  0  0  0  0  0  0  0  0
   24.8436  -48.7751   52.7882 O   0  0  0  0  0  0  0  0  0  0  0  0
   24.0879  -51.4670   53.2662 C   0  0  0  0  0  0  0  0  0  0  0  0
   19.2400  -51.9319   52.0747 C   0  0  0  0  0  0  0  0  0  0  0  0
   22.7004  -53.3258   52.8359 C   0  0  0  0  0  0  0  0  0  0  0  0
   23.8914  -52.8266   53.3364 C   0  0  0  0  0  0  0  0  0  0  0  0
   20.3205  -52.8775   52.3119 C   0  0  0  0  0  0  0  0  0  0  0  0
  1  2  1  0
  2  3  2  0
  3  4  1  0
  4  5  2  0
  4  6  1  0
  6  7  1  0
  7  8  2  0
  7  9  1  0
  6 10  2  0
  2 11  1  0
  5 12  1  0
 10 13  1  0
 12 13  2  0
  5 14  1  0
 11 14  2  0
M  END
>  <ID>  (1) 
conformer_0

$$$$
