
     RDKit          3D

 13 14  0  0  0  0  0  0  0  0999 V2000
   19.7237  -48.5910   51.1943 C   0  0  0  0  0  0  0  0  0  0  0  0
   18.8454  -49.4163   51.1630 C   0  0  0  0  0  0  0  0  0  0  0  0
   18.9761  -50.7619   51.4801 C   0  0  0  0  0  0  0  0  0  0  0  0
   20.3218  -51.1137   51.8927 C   0  0  0  0  0  0  0  0  0  0  0  0
   20.8706  -48.7556   51.6260 C   0  0  0  0  0  0  0  0  0  0  0  0
   21.3405  -50.0814   51.9987 C   0  0  0  0  0  0  0  0  0  0  0  0
   22.6252  -50.4325   52.4380 C   0  0  0  0  0  0  0  0  0  0  0  0
   20.5395  -52.2995   52.2240 C   0  0  0  0  0  0  0  0  0  0  0  0
   21.8157  -52.6975   52.6827 C   0  0  0  0  0  0  0  0  0  0  0  0
   23.6505  -49.4888   52.6123 C   0  0  0  0  0  0  0  0  0  0  0  0
   24.7729  -49.9305   53.2090 O   0  0  0  0  0  0  0  0  0  0  0  0
   22.8062  -51.6526   52.7217 C   0  0  0  0  0  0  0  0  0  0  0  0
   23.4460  -48.2198   52.7266 O   0  0  0  0  0  0  0  0  0  0  0  0
  1  2  1  0
  2  3  2  0
  3  4  1  0
  1  5  2  0
  4  6  2  0
  5  6  1  0
  6  7  1  0
  4  8  1  0
  8  9  2  0
  7 10  1  0
 10 11  1  0
  7 12  2  0
  9 12  1  0
 10 13  2  0
M  END
>  <ID>  (1) 
conformer_0

$$$$
