
     RDKit          3D

 15 16  0  0  0  0  0  0  0  0999 V2000
   19.8238  -51.3050   51.7390 C   0  0  0  0  0  0  0  0  0  0  0  0
   20.6048  -52.0265   51.9583 C   0  0  0  0  0  0  0  0  0  0  0  0
   21.9272  -51.6121   52.0924 C   0  0  0  0  0  0  0  0  0  0  0  0
   22.1866  -50.1885   52.0589 C   0  0  0  0  0  0  0  0  0  0  0  0
   23.4691  -49.5968   52.3171 C   0  0  0  0  0  0  0  0  0  0  0  0
   21.0644  -49.3190   51.8715 C   0  0  0  0  0  0  0  0  0  0  0  0
   19.8575  -49.8530   51.6347 C   0  0  0  0  0  0  0  0  0  0  0  0
   23.7730  -48.4231   51.8335 O   0  0  0  0  0  0  0  0  0  0  0  0
   23.1109  -52.3807   52.5249 C   0  0  0  0  0  0  0  0  0  0  0  0
   24.3304  -50.2176   53.0593 N   0  0  0  0  0  0  0  0  0  0  0  0
   24.1581  -51.6687   53.1237 C   0  0  0  0  0  0  0  0  0  0  0  0
   25.1521  -52.4799   53.8380 C   0  0  0  0  0  0  0  0  0  0  0  0
   25.1690  -53.6960   53.7822 O   0  0  0  0  0  0  0  0  0  0  0  0
   18.5751  -49.0227   51.3289 C   0  0  0  0  0  0  0  0  0  0  0  0
   25.8467  -51.8041   54.7030 O   0  0  0  0  0  0  0  0  0  0  0  0
  1  2  1  0
  2  3  2  0
  3  4  1  0
  4  5  1  0
  4  6  2  0
  1  7  2  0
  6  7  1  0
  5  8  2  0
  3  9  1  0
  5 10  1  0
  9 11  2  0
 10 11  1  0
 11 12  1  0
 12 13  2  0
  7 14  1  0
 12 15  1  0
M  END
>  <ID>  (1) 
conformer_0

$$$$
