
     RDKit          3D

 15 16  0  0  0  0  0  0  0  0999 V2000
   20.3288  -48.0516   51.2580 C   0  0  0  0  0  0  0  0  0  0  0  0
   19.9298  -49.3278   51.5099 C   0  0  0  0  0  0  0  0  0  0  0  0
   20.7338  -50.3662   51.8797 C   0  0  0  0  0  0  0  0  0  0  0  0
   19.4107  -47.0193   51.0605 O   0  0  0  0  0  0  0  0  0  0  0  0
   18.4929  -49.5672   51.4240 C   0  0  0  0  0  0  0  0  0  0  0  0
   20.5645  -51.6834   51.9358 C   0  0  0  0  0  0  0  0  0  0  0  0
   21.5661  -52.6009   52.0711 C   0  0  0  0  0  0  0  0  0  0  0  0
   21.5779  -47.6932   51.5251 C   0  0  0  0  0  0  0  0  0  0  0  0
   21.3867  -53.8241   52.4546 C   0  0  0  0  0  0  0  0  0  0  0  0
   20.0673  -54.2363   52.6482 O   0  0  0  0  0  0  0  0  0  0  0  0
   22.0893  -49.9482   51.9981 C   0  0  0  0  0  0  0  0  0  0  0  0
   22.5269  -48.6440   51.8753 C   0  0  0  0  0  0  0  0  0  0  0  0
   22.3234  -54.6093   52.8329 O   0  0  0  0  0  0  0  0  0  0  0  0
   23.0946  -51.0427   52.3038 C   0  0  0  0  0  0  0  0  0  0  0  0
   22.8173  -52.1418   52.3011 C   0  0  0  0  0  0  0  0  0  0  0  0
  1  2  1  0
  2  3  2  0
  1  4  1  0
  2  5  1  0
  3  6  1  0
  6  7  1  0
  1  8  2  0
  7  9  1  0
  9 10  2  0
  3 11  1  0
  8 12  1  0
 11 12  2  0
  9 13  1  0
 11 14  1  0
  7 15  2  0
 14 15  1  0
M  END
>  <ID>  (1) 
conformer_0

$$$$
