
     RDKit          3D

 10 11  0  0  0  0  0  0  0  0999 V2000
   18.6102  -49.9760   51.2425 C   0  0  0  0  0  0  0  0  0  0  0  0
   19.6296  -50.7346   51.6688 C   0  0  0  0  0  0  0  0  0  0  0  0
   19.6093  -52.0856   52.0083 C   0  0  0  0  0  0  0  0  0  0  0  0
   20.7263  -50.0441   51.9444 C   0  0  0  0  0  0  0  0  0  0  0  0
   21.8171  -50.6472   52.5024 C   0  0  0  0  0  0  0  0  0  0  0  0
   20.4787  -52.7395   52.4420 C   0  0  0  0  0  0  0  0  0  0  0  0
   21.7812  -52.0584   52.7121 C   0  0  0  0  0  0  0  0  0  0  0  0
   20.7235  -48.7239   51.5721 N   0  0  0  0  0  0  0  0  0  0  0  0
   21.5612  -47.7069   51.5825 C   0  0  0  0  0  0  0  0  0  0  0  0
   19.2924  -48.6894   51.2700 C   0  0  0  0  0  0  0  0  0  0  0  0
  1  2  1  0
  2  3  1  0
  2  4  2  0
  4  5  1  0
  3  6  2  0
  5  7  2  0
  6  7  1  0
  4  8  1  0
  8  9  1  0
  1 10  2  0
  8 10  1  0
M  END
>  <ID>  (1) 
conformer_0

$$$$
