
     RDKit          3D

 13 14  0  0  0  0  0  0  0  0999 V2000
   18.6592  -50.3900   51.0367 O   0  0  0  0  0  0  0  0  0  0  0  0
   19.6717  -49.9332   51.4649 C   0  0  0  0  0  0  0  0  0  0  0  0
   20.5807  -50.5117   51.9592 N   0  0  0  0  0  0  0  0  0  0  0  0
   21.7551  -50.0013   52.4000 C   0  0  0  0  0  0  0  0  0  0  0  0
   22.0088  -48.6679   52.2921 C   0  0  0  0  0  0  0  0  0  0  0  0
   22.7166  -50.9712   52.8913 C   0  0  0  0  0  0  0  0  0  0  0  0
   20.4875  -52.0217   51.7898 C   0  0  0  0  0  0  0  0  0  0  0  0
   19.7426  -48.4334   51.4197 N   0  0  0  0  0  0  0  0  0  0  0  0
   20.8537  -47.9118   51.8854 C   0  0  0  0  0  0  0  0  0  0  0  0
   20.9417  -46.3960   51.8590 C   0  0  0  0  0  0  0  0  0  0  0  0
   22.6981  -52.2663   52.7738 C   0  0  0  0  0  0  0  0  0  0  0  0
   23.7609  -53.0374   53.2797 C   0  0  0  0  0  0  0  0  0  0  0  0
   21.5182  -52.7891   52.2961 C   0  0  0  0  0  0  0  0  0  0  0  0
  1  2  2  0
  2  3  1  0
  3  4  1  0
  4  5  2  0
  4  6  1  0
  3  7  1  0
  2  8  1  0
  5  9  1  0
  8  9  2  0
  9 10  1  0
  6 11  2  0
 11 12  1  0
  7 13  2  0
 11 13  1  0
M  END
>  <ID>  (1) 
conformer_0

$$$$
