
     RDKit          3D

 15 15  0  0  0  0  0  0  0  0999 V2000
   18.8584  -49.0070   51.0450 O   0  0  0  0  0  0  0  0  0  0  0  0
   19.9206  -49.0435   51.5117 C   0  0  0  0  0  0  0  0  0  0  0  0
   20.4425  -50.3590   51.7408 C   0  0  0  0  0  0  0  0  0  0  0  0
   21.7834  -50.5439   52.0635 C   0  0  0  0  0  0  0  0  0  0  0  0
   22.3766  -51.8020   52.2925 C   0  0  0  0  0  0  0  0  0  0  0  0
   20.2589  -47.9631   51.9737 O   0  0  0  0  0  0  0  0  0  0  0  0
   19.6326  -51.5304   51.7237 C   0  0  0  0  0  0  0  0  0  0  0  0
   21.4807  -52.8954   52.2546 C   0  0  0  0  0  0  0  0  0  0  0  0
   20.1451  -52.7564   51.9522 C   0  0  0  0  0  0  0  0  0  0  0  0
   22.6360  -49.3587   52.2048 N   0  0  0  0  0  0  0  0  0  0  0  0
   22.0032  -54.2028   52.4626 C   0  0  0  0  0  0  0  0  0  0  0  0
   23.6405  -49.2844   53.0114 C   0  0  0  0  0  0  0  0  0  0  0  0
   24.4210  -48.2287   53.0068 O   0  0  0  0  0  0  0  0  0  0  0  0
   24.1633  -50.4625   53.4468 O   0  0  0  0  0  0  0  0  0  0  0  0
   24.5746  -47.6089   54.2277 C   0  0  0  0  0  0  0  0  0  0  0  0
  1  2  2  0
  2  3  1  0
  3  4  1  0
  4  5  2  0
  2  6  1  0
  3  7  2  0
  5  8  1  0
  7  9  1  0
  8  9  2  0
  4 10  1  0
  8 11  1  0
 10 12  1  0
 12 13  1  0
 12 14  2  0
 13 15  1  0
M  END
>  <ID>  (1) 
conformer_0

$$$$
