
     RDKit          3D

 15 17  0  0  0  0  0  0  0  0999 V2000
   18.6199  -50.2854   51.3439 C   0  0  0  0  0  0  0  0  0  0  0  0
   19.7772  -50.7975   51.6852 C   0  0  0  0  0  0  0  0  0  0  0  0
   20.0224  -52.0948   51.9152 C   0  0  0  0  0  0  0  0  0  0  0  0
   21.2631  -52.5284   52.2848 C   0  0  0  0  0  0  0  0  0  0  0  0
   20.8265  -49.7808   51.8516 C   0  0  0  0  0  0  0  0  0  0  0  0
   22.2550  -51.4599   52.4033 C   0  0  0  0  0  0  0  0  0  0  0  0
   22.0730  -50.2204   52.1614 C   0  0  0  0  0  0  0  0  0  0  0  0
   21.4650  -53.8089   52.5728 O   0  0  0  0  0  0  0  0  0  0  0  0
   23.1074  -49.2741   52.4379 C   0  0  0  0  0  0  0  0  0  0  0  0
   23.5860  -51.8839   52.8872 C   0  0  0  0  0  0  0  0  0  0  0  0
   24.2386  -49.5301   53.0695 C   0  0  0  0  0  0  0  0  0  0  0  0
   20.3294  -48.4661   51.5322 C   0  0  0  0  0  0  0  0  0  0  0  0
   18.6831  -48.8208   51.2212 C   0  0  0  0  0  0  0  0  0  0  0  0
   25.2648  -48.5693   53.3500 O   0  0  0  0  0  0  0  0  0  0  0  0
   24.5742  -50.9035   53.2622 C   0  0  0  0  0  0  0  0  0  0  0  0
  1  2  1  0
  2  3  1  0
  3  4  2  0
  2  5  2  0
  4  6  1  0
  5  7  1  0
  6  7  2  0
  4  8  1  0
  7  9  1  0
  6 10  1  0
  9 11  2  0
  5 12  1  0
  1 13  2  0
 12 13  1  0
 11 14  1  0
 10 15  2  0
 11 15  1  0
M  END
>  <ID>  (1) 
conformer_0

$$$$
