
     RDKit          3D

 14 15  0  0  0  0  0  0  0  0999 V2000
   19.8238  -51.3050   51.7390 C   0  0  0  0  0  0  0  0  0  0  0  0
   20.2320  -50.0962   51.6472 C   0  0  0  0  0  0  0  0  0  0  0  0
   21.4857  -49.7155   52.0011 C   0  0  0  0  0  0  0  0  0  0  0  0
   20.5773  -52.3537   52.1486 C   0  0  0  0  0  0  0  0  0  0  0  0
   21.9003  -52.0666   52.4140 C   0  0  0  0  0  0  0  0  0  0  0  0
   22.3800  -50.7388   52.2916 C   0  0  0  0  0  0  0  0  0  0  0  0
   23.5736  -50.2909   52.7686 N   0  0  0  0  0  0  0  0  0  0  0  0
   21.9444  -48.3955   51.9387 C   0  0  0  0  0  0  0  0  0  0  0  0
   19.2377  -49.0703   51.2422 O   0  0  0  0  0  0  0  0  0  0  0  0
   21.1338  -47.3607   51.5793 O   0  0  0  0  0  0  0  0  0  0  0  0
   23.1326  -48.0645   52.5097 N   0  0  0  0  0  0  0  0  0  0  0  0
   22.7748  -53.1024   52.6188 C   0  0  0  0  0  0  0  0  0  0  0  0
   23.9472  -49.0216   52.8142 C   0  0  0  0  0  0  0  0  0  0  0  0
   25.2050  -48.7133   53.4469 C   0  0  0  0  0  0  0  0  0  0  0  0
  1  2  2  0
  2  3  1  0
  1  4  1  0
  4  5  2  0
  3  6  2  0
  5  6  1  0
  6  7  1  0
  3  8  1  0
  2  9  1  0
  8 10  2  0
  8 11  1  0
  5 12  1  0
  7 13  2  0
 11 13  1  0
 13 14  1  0
M  END
>  <ID>  (1) 
conformer_0

$$$$
