
     RDKit          3D

 15 17  0  0  0  0  0  0  0  0999 V2000
   18.4360  -50.1999   51.3286 C   0  0  0  0  0  0  0  0  0  0  0  0
   19.6597  -50.6834   51.6414 C   0  0  0  0  0  0  0  0  0  0  0  0
   20.7928  -49.8324   51.7436 C   0  0  0  0  0  0  0  0  0  0  0  0
   20.6433  -48.5921   51.7168 C   0  0  0  0  0  0  0  0  0  0  0  0
   19.9788  -52.0912   51.5989 N   0  0  0  0  0  0  0  0  0  0  0  0
   21.1294  -52.5027   51.8430 C   0  0  0  0  0  0  0  0  0  0  0  0
   22.2161  -51.6773   51.9816 C   0  0  0  0  0  0  0  0  0  0  0  0
   21.1949  -53.9631   51.9760 C   0  0  0  0  0  0  0  0  0  0  0  0
   18.3300  -48.8066   51.3649 C   0  0  0  0  0  0  0  0  0  0  0  0
   21.7851  -47.6214   51.9531 C   0  0  0  0  0  0  0  0  0  0  0  0
   22.1482  -50.3357   52.0294 C   0  0  0  0  0  0  0  0  0  0  0  0
   22.4892  -54.3773   52.3913 C   0  0  0  0  0  0  0  0  0  0  0  0
   23.4624  -52.2357   52.4376 C   0  0  0  0  0  0  0  0  0  0  0  0
   23.5777  -53.5945   52.5627 C   0  0  0  0  0  0  0  0  0  0  0  0
   19.3382  -47.9773   51.5463 C   0  0  0  0  0  0  0  0  0  0  0  0
  1  2  1  0
  2  3  2  0
  3  4  1  0
  2  5  1  0
  5  6  2  0
  6  7  1  0
  6  8  1  0
  1  9  2  0
  4 10  1  0
  3 11  1  0
  7 11  1  0
  8 12  2  0
  7 13  2  0
 12 14  1  0
 13 14  1  0
  4 15  2  0
  9 15  1  0
M  END
>  <ID>  (1) 
conformer_0

$$$$
