
     RDKit          3D

 15 17  0  0  0  0  0  0  0  0999 V2000
   18.4627  -50.6629   51.6654 N   0  0  0  0  0  0  0  0  0  0  0  0
   18.8811  -49.5200   51.4414 C   0  0  0  0  0  0  0  0  0  0  0  0
   20.2705  -49.2049   51.4838 C   0  0  0  0  0  0  0  0  0  0  0  0
   20.8520  -47.9975   51.2322 C   0  0  0  0  0  0  0  0  0  0  0  0
   20.9264  -50.3768   51.9747 C   0  0  0  0  0  0  0  0  0  0  0  0
   20.3233  -51.5857   52.0847 C   0  0  0  0  0  0  0  0  0  0  0  0
   21.1343  -52.7140   52.5000 C   0  0  0  0  0  0  0  0  0  0  0  0
   22.3930  -50.2535   52.0861 C   0  0  0  0  0  0  0  0  0  0  0  0
   19.0615  -51.7247   51.9881 N   0  0  0  0  0  0  0  0  0  0  0  0
   23.1272  -48.9970   52.0810 C   0  0  0  0  0  0  0  0  0  0  0  0
   24.2602  -48.7420   52.7620 C   0  0  0  0  0  0  0  0  0  0  0  0
   23.2404  -51.3235   52.4596 C   0  0  0  0  0  0  0  0  0  0  0  0
   24.9021  -49.8835   53.4803 C   0  0  0  0  0  0  0  0  0  0  0  0
   24.3887  -51.1404   53.0777 C   0  0  0  0  0  0  0  0  0  0  0  0
   22.5414  -52.5959   52.3671 C   0  0  0  0  0  0  0  0  0  0  0  0
  1  2  1  0
  2  3  2  0
  3  4  1  0
  3  5  1  0
  5  6  2  0
  6  7  1  0
  5  8  1  0
  1  9  2  0
  6  9  1  0
  8 10  1  0
 10 11  2  0
  8 12  2  0
 11 13  1  0
 12 14  1  0
 13 14  2  0
  7 15  2  0
 12 15  1  0
M  END
>  <ID>  (1) 
conformer_0

$$$$
