
     RDKit          3D

 14 15  0  0  0  0  0  0  0  0999 V2000
   19.0686  -51.6015   52.1854 C   0  0  0  0  0  0  0  0  0  0  0  0
   20.3230  -52.0683   52.3305 C   0  0  0  0  0  0  0  0  0  0  0  0
   21.4494  -51.2543   52.2145 C   0  0  0  0  0  0  0  0  0  0  0  0
   22.7824  -51.8080   52.4473 C   0  0  0  0  0  0  0  0  0  0  0  0
   23.8174  -50.9671   52.7452 N   0  0  0  0  0  0  0  0  0  0  0  0
   24.7852  -51.3628   53.4785 C   0  0  0  0  0  0  0  0  0  0  0  0
   20.4429  -53.3315   52.7523 N   0  0  0  0  0  0  0  0  0  0  0  0
   19.0993  -50.2149   51.7569 C   0  0  0  0  0  0  0  0  0  0  0  0
   22.9337  -53.0533   52.2747 N   0  0  0  0  0  0  0  0  0  0  0  0
   21.7475  -53.8735   52.5977 C   0  0  0  0  0  0  0  0  0  0  0  0
   21.3506  -49.8898   51.8728 C   0  0  0  0  0  0  0  0  0  0  0  0
   25.7167  -50.3096   53.9472 C   0  0  0  0  0  0  0  0  0  0  0  0
   25.4719  -52.5325   53.4926 O   0  0  0  0  0  0  0  0  0  0  0  0
   20.1145  -49.4236   51.5687 C   0  0  0  0  0  0  0  0  0  0  0  0
  1  2  1  0
  2  3  2  0
  3  4  1  0
  4  5  1  0
  5  6  1  0
  2  7  1  0
  1  8  2  0
  4  9  2  0
  7 10  2  0
  9 10  1  0
  3 11  1  0
  6 12  1  0
  6 13  2  0
  8 14  1  0
 11 14  2  0
M  END
>  <ID>  (1) 
conformer_0

$$$$
