
     RDKit          3D

 13 14  0  0  0  0  0  0  0  0999 V2000
   19.8238  -51.3050   51.7390 C   0  0  0  0  0  0  0  0  0  0  0  0
   20.2320  -50.0962   51.6472 C   0  0  0  0  0  0  0  0  0  0  0  0
   19.2192  -49.0141   51.2520 O   0  0  0  0  0  0  0  0  0  0  0  0
   20.6310  -52.2149   52.0467 C   0  0  0  0  0  0  0  0  0  0  0  0
   21.3707  -49.6445   52.2164 C   0  0  0  0  0  0  0  0  0  0  0  0
   21.9137  -51.9302   52.5313 C   0  0  0  0  0  0  0  0  0  0  0  0
   22.3283  -50.5616   52.5369 C   0  0  0  0  0  0  0  0  0  0  0  0
   23.6744  -50.1967   53.0122 C   0  0  0  0  0  0  0  0  0  0  0  0
   24.0988  -48.8997   52.8892 C   0  0  0  0  0  0  0  0  0  0  0  0
   24.4245  -51.1622   53.5820 N   0  0  0  0  0  0  0  0  0  0  0  0
   25.6678  -50.9628   54.0642 C   0  0  0  0  0  0  0  0  0  0  0  0
   25.4250  -48.7477   53.5065 C   0  0  0  0  0  0  0  0  0  0  0  0
   26.1393  -49.6368   54.1355 C   0  0  0  0  0  0  0  0  0  0  0  0
  1  2  1  0
  2  3  1  0
  1  4  2  0
  2  5  2  0
  4  6  1  0
  5  7  1  0
  6  7  2  0
  7  8  1  0
  8  9  2  0
  8 10  1  0
 10 11  2  0
  9 12  1  0
 11 13  1  0
 12 13  2  0
M  END
>  <ID>  (1) 
conformer_0

$$$$
