
     RDKit          3D

 11 12  0  0  0  0  0  0  0  0999 V2000
   19.7237  -48.5910   51.1943 C   0  0  0  0  0  0  0  0  0  0  0  0
   18.8454  -49.4163   51.1630 N   0  0  0  0  0  0  0  0  0  0  0  0
   21.1008  -48.9565   51.5662 C   0  0  0  0  0  0  0  0  0  0  0  0
   22.2503  -48.0848   51.6451 C   0  0  0  0  0  0  0  0  0  0  0  0
   21.1989  -50.2031   52.1886 C   0  0  0  0  0  0  0  0  0  0  0  0
   19.0136  -50.6345   51.5762 C   0  0  0  0  0  0  0  0  0  0  0  0
   20.2554  -51.0505   52.0300 C   0  0  0  0  0  0  0  0  0  0  0  0
   20.4992  -52.3759   52.5352 N   0  0  0  0  0  0  0  0  0  0  0  0
   22.4303  -50.6398   52.7454 N   0  0  0  0  0  0  0  0  0  0  0  0
   22.6617  -51.8776   53.0665 C   0  0  0  0  0  0  0  0  0  0  0  0
   21.4997  -52.7265   52.8395 C   0  0  0  0  0  0  0  0  0  0  0  0
  1  2  1  0
  1  3  2  0
  3  4  1  0
  3  5  1  0
  2  6  2  0
  5  7  2  0
  6  7  1  0
  7  8  1  0
  5  9  1  0
  9 10  2  0
  8 11  2  0
 10 11  1  0
M  END
>  <ID>  (1) 
conformer_0

$$$$
