
     RDKit          3D

 13 14  0  0  0  0  0  0  0  0999 V2000
   18.4360  -50.1999   51.3286 C   0  0  0  0  0  0  0  0  0  0  0  0
   19.0631  -49.0625   51.3318 C   0  0  0  0  0  0  0  0  0  0  0  0
   19.0595  -51.3426   51.6799 C   0  0  0  0  0  0  0  0  0  0  0  0
   20.3968  -51.1877   51.9429 C   0  0  0  0  0  0  0  0  0  0  0  0
   21.2613  -52.3048   52.2811 C   0  0  0  0  0  0  0  0  0  0  0  0
   20.3842  -48.8480   51.4629 C   0  0  0  0  0  0  0  0  0  0  0  0
   21.0274  -47.6275   51.3669 O   0  0  0  0  0  0  0  0  0  0  0  0
   20.6830  -53.4105   52.5422 O   0  0  0  0  0  0  0  0  0  0  0  0
   21.0808  -49.9983   51.8480 C   0  0  0  0  0  0  0  0  0  0  0  0
   22.4590  -49.8044   52.0707 C   0  0  0  0  0  0  0  0  0  0  0  0
   22.6121  -52.1686   52.5063 C   0  0  0  0  0  0  0  0  0  0  0  0
   23.3659  -53.2527   52.8670 N   0  0  0  0  0  0  0  0  0  0  0  0
   23.2117  -50.9309   52.4825 C   0  0  0  0  0  0  0  0  0  0  0  0
  1  2  2  0
  1  3  1  0
  3  4  2  0
  4  5  1  0
  2  6  1  0
  6  7  1  0
  5  8  2  0
  4  9  1  0
  6  9  2  0
  9 10  1  0
  5 11  1  0
 11 12  1  0
 10 13  1  0
 11 13  2  0
M  END
>  <ID>  (1) 
conformer_0

$$$$
