
     RDKit          3D

 13 14  0  0  0  0  0  0  0  0999 V2000
   18.4627  -50.6629   51.6654 N   0  0  0  0  0  0  0  0  0  0  0  0
   19.7291  -50.8733   51.7985 C   0  0  0  0  0  0  0  0  0  0  0  0
   20.2966  -51.9399   51.9283 N   0  0  0  0  0  0  0  0  0  0  0  0
   20.3508  -49.5563   51.8690 N   0  0  0  0  0  0  0  0  0  0  0  0
   19.6834  -48.4829   51.6431 C   0  0  0  0  0  0  0  0  0  0  0  0
   18.2834  -49.1117   51.4922 C   0  0  0  0  0  0  0  0  0  0  0  0
   19.6471  -53.0853   52.0391 C   0  0  0  0  0  0  0  0  0  0  0  0
   20.3319  -54.1776   52.2069 C   0  0  0  0  0  0  0  0  0  0  0  0
   21.6863  -51.9939   52.2513 C   0  0  0  0  0  0  0  0  0  0  0  0
   22.3665  -53.0897   52.4843 C   0  0  0  0  0  0  0  0  0  0  0  0
   19.7724  -47.3370   51.5223 O   0  0  0  0  0  0  0  0  0  0  0  0
   19.6076  -55.4607   52.2947 C   0  0  0  0  0  0  0  0  0  0  0  0
   21.6670  -54.2205   52.5323 C   0  0  0  0  0  0  0  0  0  0  0  0
  1  2  1  0
  2  3  1  0
  2  4  2  0
  4  5  1  0
  1  6  1  0
  5  6  1  0
  3  7  1  0
  7  8  2  0
  3  9  1  0
  9 10  1  0
  5 11  2  0
  8 12  1  0
  8 13  1  0
 10 13  2  0
M  END
>  <ID>  (1) 
conformer_0

$$$$
