
     RDKit          3D

 13 13  0  0  0  0  0  0  0  0999 V2000
   19.0686  -51.6015   52.1854 C   0  0  0  0  0  0  0  0  0  0  0  0
   19.2346  -50.3911   51.8943 C   0  0  0  0  0  0  0  0  0  0  0  0
   20.4475  -49.6213   51.6426 C   0  0  0  0  0  0  0  0  0  0  0  0
   21.6270  -50.2252   51.9391 C   0  0  0  0  0  0  0  0  0  0  0  0
   20.3431  -52.2655   52.4271 C   0  0  0  0  0  0  0  0  0  0  0  0
   21.7037  -51.4763   52.3286 C   0  0  0  0  0  0  0  0  0  0  0  0
   22.9637  -49.3916   51.8723 C   0  0  0  0  0  0  0  0  0  0  0  0
   20.3978  -53.5135   52.9006 O   0  0  0  0  0  0  0  0  0  0  0  0
   18.0682  -49.6444   51.4470 O   0  0  0  0  0  0  0  0  0  0  0  0
   22.8589  -52.2069   52.6528 C   0  0  0  0  0  0  0  0  0  0  0  0
   23.8098  -51.5366   53.2450 O   0  0  0  0  0  0  0  0  0  0  0  0
   23.0467  -53.4119   52.2975 O   0  0  0  0  0  0  0  0  0  0  0  0
   20.3757  -48.1596   51.1791 O   0  0  0  0  0  0  0  0  0  0  0  0
  1  2  2  0
  2  3  1  0
  3  4  2  0
  1  5  1  0
  4  6  1  0
  5  6  2  0
  4  7  1  0
  5  8  1  0
  2  9  1  0
  6 10  1  0
 10 11  1  0
 10 12  2  0
  3 13  1  0
M  END
>  <ID>  (1) 
conformer_0

$$$$
