
     RDKit          3D

 14 14  0  0  0  0  0  0  0  0999 V2000
   18.6592  -50.3900   51.0367 O   0  0  0  0  0  0  0  0  0  0  0  0
   19.6717  -49.9332   51.4649 C   0  0  0  0  0  0  0  0  0  0  0  0
   20.0599  -48.6398   51.4802 C   0  0  0  0  0  0  0  0  0  0  0  0
   20.7219  -50.8527   51.9264 C   0  0  0  0  0  0  0  0  0  0  0  0
   22.0306  -50.3594   52.1328 C   0  0  0  0  0  0  0  0  0  0  0  0
   20.5389  -52.1924   51.9371 C   0  0  0  0  0  0  0  0  0  0  0  0
   19.3050  -52.7450   51.7985 O   0  0  0  0  0  0  0  0  0  0  0  0
   21.6325  -52.9716   52.1580 C   0  0  0  0  0  0  0  0  0  0  0  0
   21.4274  -54.4438   52.2706 O   0  0  0  0  0  0  0  0  0  0  0  0
   22.9788  -51.3626   52.5361 C   0  0  0  0  0  0  0  0  0  0  0  0
   24.3782  -50.8261   52.8752 O   0  0  0  0  0  0  0  0  0  0  0  0
   24.3641  -49.5813   53.5951 C   0  0  0  0  0  0  0  0  0  0  0  0
   22.8381  -52.6129   52.5212 C   0  0  0  0  0  0  0  0  0  0  0  0
   23.8606  -53.5375   52.8553 O   0  0  0  0  0  0  0  0  0  0  0  0
  1  2  2  0
  2  3  1  0
  2  4  1  0
  4  5  2  0
  4  6  1  0
  6  7  1  0
  6  8  2  0
  8  9  1  0
  5 10  1  0
 10 11  1  0
 11 12  1  0
  8 13  1  0
 10 13  2  0
 13 14  1  0
M  END
>  <ID>  (1) 
conformer_0

$$$$
