
     RDKit          3D

 15 17  0  0  0  0  0  0  0  0999 V2000
   18.7485  -50.6341   51.0873 O   0  0  0  0  0  0  0  0  0  0  0  0
   19.7152  -50.0423   51.4849 C   0  0  0  0  0  0  0  0  0  0  0  0
   20.8139  -50.9657   51.8391 C   0  0  0  0  0  0  0  0  0  0  0  0
   20.7056  -52.2576   51.9444 C   0  0  0  0  0  0  0  0  0  0  0  0
   21.5327  -53.0388   52.2056 C   0  0  0  0  0  0  0  0  0  0  0  0
   21.3440  -54.4805   52.3228 C   0  0  0  0  0  0  0  0  0  0  0  0
   22.0303  -50.3460   52.1908 C   0  0  0  0  0  0  0  0  0  0  0  0
   22.1908  -48.9030   52.2026 C   0  0  0  0  0  0  0  0  0  0  0  0
   21.0546  -48.2058   51.8592 C   0  0  0  0  0  0  0  0  0  0  0  0
   22.8891  -52.7847   52.6496 C   0  0  0  0  0  0  0  0  0  0  0  0
   23.8065  -53.5612   52.9977 C   0  0  0  0  0  0  0  0  0  0  0  0
   19.9271  -48.6780   51.4786 N   0  0  0  0  0  0  0  0  0  0  0  0
   22.2762  -55.3974   52.7208 C   0  0  0  0  0  0  0  0  0  0  0  0
   23.4958  -54.9772   53.0890 C   0  0  0  0  0  0  0  0  0  0  0  0
   23.0687  -51.2528   52.5981 C   0  0  0  0  0  0  0  0  0  0  0  0
  1  2  2  0
  2  3  1  0
  3  4  1  0
  4  5  2  0
  5  6  1  0
  3  7  2  0
  7  8  1  0
  8  9  2  0
  5 10  1  0
 10 11  1  0
  2 12  1  0
  9 12  1  0
  6 13  2  0
 11 14  2  0
 13 14  1  0
  7 15  1  0
 10 15  2  0
M  END
>  <ID>  (1) 
conformer_0

$$$$
