
     RDKit          3D

 13 13  0  0  0  0  0  0  0  0999 V2000
   18.7485  -50.6341   51.0873 O   0  0  0  0  0  0  0  0  0  0  0  0
   19.5496  -51.1859   51.7701 C   0  0  0  0  0  0  0  0  0  0  0  0
   20.7793  -50.6417   52.0806 C   0  0  0  0  0  0  0  0  0  0  0  0
   21.9183  -51.4450   52.3773 C   0  0  0  0  0  0  0  0  0  0  0  0
   20.9832  -49.2417   52.1917 C   0  0  0  0  0  0  0  0  0  0  0  0
   22.2676  -48.7161   52.5633 C   0  0  0  0  0  0  0  0  0  0  0  0
   23.1120  -50.6636   52.7785 C   0  0  0  0  0  0  0  0  0  0  0  0
   19.3012  -52.3963   52.0615 N   0  0  0  0  0  0  0  0  0  0  0  0
   24.3276  -51.5372   53.0546 O   0  0  0  0  0  0  0  0  0  0  0  0
   23.2527  -49.4064   52.8306 C   0  0  0  0  0  0  0  0  0  0  0  0
   19.6723  -48.3643   51.9138 C   0  0  0  0  0  0  0  0  0  0  0  0
   21.9503  -52.8074   52.4558 N   0  0  0  0  0  0  0  0  0  0  0  0
   24.3632  -48.7371   53.1395 C   0  0  0  0  0  0  0  0  0  0  0  0
  1  2  2  0
  2  3  1  0
  3  4  2  0
  3  5  1  0
  5  6  2  0
  4  7  1  0
  2  8  1  0
  7  9  1  0
  6 10  1  0
  7 10  2  0
  5 11  1  0
  4 12  1  0
 10 13  1  0
M  END
>  <ID>  (1) 
conformer_0

$$$$
