
     RDKit          3D

 12 13  0  0  0  0  0  0  0  0999 V2000
   18.6199  -50.2854   51.3439 C   0  0  0  0  0  0  0  0  0  0  0  0
   19.2355  -49.1260   51.3379 C   0  0  0  0  0  0  0  0  0  0  0  0
   20.6595  -49.2810   51.6761 C   0  0  0  0  0  0  0  0  0  0  0  0
   21.2765  -50.4286   52.0271 C   0  0  0  0  0  0  0  0  0  0  0  0
   20.2853  -51.5296   51.8961 C   0  0  0  0  0  0  0  0  0  0  0  0
   19.0600  -51.4471   51.6043 C   0  0  0  0  0  0  0  0  0  0  0  0
   22.5281  -50.6387   52.3051 C   0  0  0  0  0  0  0  0  0  0  0  0
   23.0677  -51.8338   52.6360 C   0  0  0  0  0  0  0  0  0  0  0  0
   24.3745  -51.9998   53.0386 O   0  0  0  0  0  0  0  0  0  0  0  0
   20.9556  -52.8963   52.2967 C   0  0  0  0  0  0  0  0  0  0  0  0
   22.3431  -53.0315   52.6078 C   0  0  0  0  0  0  0  0  0  0  0  0
   24.7450  -53.1634   53.7607 C   0  0  0  0  0  0  0  0  0  0  0  0
  1  2  2  0
  2  3  1  0
  3  4  2  0
  4  5  1  0
  1  6  1  0
  5  6  2  0
  4  7  1  0
  7  8  2  0
  8  9  1  0
  5 10  1  0
  8 11  1  0
 10 11  2  0
  9 12  1  0
M  END
>  <ID>  (1) 
conformer_0

$$$$
