
     RDKit          3D

 13 14  0  0  0  0  0  0  0  0999 V2000
   18.7485  -50.6341   51.0873 O   0  0  0  0  0  0  0  0  0  0  0  0
   19.8723  -50.7071   51.6321 C   0  0  0  0  0  0  0  0  0  0  0  0
   20.3429  -51.9272   51.9485 C   0  0  0  0  0  0  0  0  0  0  0  0
   21.6499  -52.0212   52.3393 C   0  0  0  0  0  0  0  0  0  0  0  0
   20.6472  -49.5553   51.6878 C   0  0  0  0  0  0  0  0  0  0  0  0
   22.2190  -53.2576   52.7530 C   0  0  0  0  0  0  0  0  0  0  0  0
   22.5149  -50.8099   52.3064 C   0  0  0  0  0  0  0  0  0  0  0  0
   21.9402  -49.5855   52.0370 C   0  0  0  0  0  0  0  0  0  0  0  0
   23.6034  -53.2937   52.7946 C   0  0  0  0  0  0  0  0  0  0  0  0
   24.2940  -52.1972   53.4174 C   0  0  0  0  0  0  0  0  0  0  0  0
   20.0475  -48.3160   51.3047 O   0  0  0  0  0  0  0  0  0  0  0  0
   23.8645  -50.8667   52.8627 C   0  0  0  0  0  0  0  0  0  0  0  0
   24.6120  -49.9021   52.8296 O   0  0  0  0  0  0  0  0  0  0  0  0
  1  2  2  0
  2  3  1  0
  3  4  2  0
  2  5  1  0
  4  6  1  0
  4  7  1  0
  5  8  2  0
  7  8  1  0
  6  9  1  0
  9 10  1  0
  5 11  1  0
  7 12  1  0
 10 12  1  0
 12 13  2  0
M  END
>  <ID>  (1) 
conformer_0

$$$$
