
     RDKit          3D

 14 15  0  0  0  0  0  0  0  0999 V2000
   19.0686  -51.6015   52.1854 C   0  0  0  0  0  0  0  0  0  0  0  0
   20.3230  -52.0683   52.3305 C   0  0  0  0  0  0  0  0  0  0  0  0
   21.4494  -51.2543   52.2145 C   0  0  0  0  0  0  0  0  0  0  0  0
   22.7824  -51.8080   52.4473 C   0  0  0  0  0  0  0  0  0  0  0  0
   22.8660  -53.1523   52.6944 C   0  0  0  0  0  0  0  0  0  0  0  0
   24.2233  -53.7055   52.9157 C   0  0  0  0  0  0  0  0  0  0  0  0
   21.8116  -53.9780   52.7015 C   0  0  0  0  0  0  0  0  0  0  0  0
   21.8776  -55.3518   52.9153 O   0  0  0  0  0  0  0  0  0  0  0  0
   24.4815  -54.7517   52.6004 O   0  0  0  0  0  0  0  0  0  0  0  0
   24.9364  -52.9409   53.7301 O   0  0  0  0  0  0  0  0  0  0  0  0
   21.2684  -49.8919   51.9925 C   0  0  0  0  0  0  0  0  0  0  0  0
   19.9707  -49.4570   51.7569 C   0  0  0  0  0  0  0  0  0  0  0  0
   18.8838  -50.2606   51.8709 C   0  0  0  0  0  0  0  0  0  0  0  0
   20.4497  -53.5306   52.5837 C   0  0  0  0  0  0  0  0  0  0  0  0
  1  2  1  0
  2  3  2  0
  3  4  1  0
  4  5  2  0
  5  6  1  0
  5  7  1  0
  7  8  1  0
  6  9  2  0
  6 10  1  0
  3 11  1  0
 11 12  2  0
  1 13  2  0
 12 13  1  0
  2 14  1  0
  7 14  2  0
M  END
>  <ID>  (1) 
conformer_0

$$$$
