
     RDKit          3D

 16 18  0  0  0  0  0  0  0  0999 V2000
   18.7575  -50.8466   51.6579 C   0  0  0  0  0  0  0  0  0  0  0  0
   19.7945  -51.6738   51.9183 C   0  0  0  0  0  0  0  0  0  0  0  0
   21.1246  -51.2547   52.0028 C   0  0  0  0  0  0  0  0  0  0  0  0
   22.1587  -52.1284   52.3357 C   0  0  0  0  0  0  0  0  0  0  0  0
   23.3717  -51.4876   52.6033 C   0  0  0  0  0  0  0  0  0  0  0  0
   23.5935  -50.0497   52.6247 C   0  0  0  0  0  0  0  0  0  0  0  0
   22.4223  -49.3000   52.1695 C   0  0  0  0  0  0  0  0  0  0  0  0
   21.9962  -53.3962   52.3444 C   0  0  0  0  0  0  0  0  0  0  0  0
   21.2324  -49.8693   51.9612 C   0  0  0  0  0  0  0  0  0  0  0  0
   20.9604  -54.0667   52.2646 C   0  0  0  0  0  0  0  0  0  0  0  0
   24.7609  -49.4502   52.9800 C   0  0  0  0  0  0  0  0  0  0  0  0
   24.6863  -48.1351   53.1020 O   0  0  0  0  0  0  0  0  0  0  0  0
   25.5450  -49.9230   53.7647 O   0  0  0  0  0  0  0  0  0  0  0  0
   19.2516  -49.5633   51.5792 N   0  0  0  0  0  0  0  0  0  0  0  0
   20.2194  -49.0880   51.6943 C   0  0  0  0  0  0  0  0  0  0  0  0
   19.5420  -53.1908   52.0526 C   0  0  0  0  0  0  0  0  0  0  0  0
  1  2  1  0
  2  3  2  0
  3  4  1  0
  4  5  1  0
  5  6  1  0
  6  7  2  0
  4  8  2  0
  3  9  1  0
  7  9  1  0
  8 10  1  0
  6 11  1  0
 11 12  1  0
 11 13  2  0
  1 14  2  0
  9 15  2  0
 14 15  1  0
  2 16  1  0
 10 16  2  0
M  END
>  <ID>  (1) 
conformer_0

$$$$
