
     RDKit          3D

 12 12  0  0  0  0  0  0  0  0999 V2000
   18.7485  -50.6341   51.0873 O   0  0  0  0  0  0  0  0  0  0  0  0
   19.8723  -50.7071   51.6321 C   0  0  0  0  0  0  0  0  0  0  0  0
   20.3429  -51.9272   51.9485 C   0  0  0  0  0  0  0  0  0  0  0  0
   21.6499  -52.0212   52.3393 C   0  0  0  0  0  0  0  0  0  0  0  0
   20.6472  -49.5553   51.6878 C   0  0  0  0  0  0  0  0  0  0  0  0
   22.2190  -53.2576   52.7530 C   0  0  0  0  0  0  0  0  0  0  0  0
   22.5149  -50.8099   52.3064 C   0  0  0  0  0  0  0  0  0  0  0  0
   21.9402  -49.5855   52.0370 C   0  0  0  0  0  0  0  0  0  0  0  0
   23.6034  -53.2937   52.7946 C   0  0  0  0  0  0  0  0  0  0  0  0
   21.9682  -54.3946   51.9436 O   0  0  0  0  0  0  0  0  0  0  0  0
   20.0369  -48.3340   51.3054 O   0  0  0  0  0  0  0  0  0  0  0  0
   22.7168  -48.3580   52.0915 C   0  0  0  0  0  0  0  0  0  0  0  0
  1  2  2  0
  2  3  1  0
  3  4  2  0
  2  5  1  0
  4  6  1  0
  4  7  1  0
  5  8  2  0
  7  8  1  0
  6  9  1  0
  6 10  1  0
  5 11  1  0
  8 12  1  0
M  END
>  <ID>  (1) 
conformer_0

$$$$
