
     RDKit          3D

 12 13  0  0  0  0  0  0  0  0999 V2000
   18.6281  -49.0966   51.0457 O   0  0  0  0  0  0  0  0  0  0  0  0
   19.0856  -50.1077   51.4736 C   0  0  0  0  0  0  0  0  0  0  0  0
   18.5853  -51.3117   51.5369 N   0  0  0  0  0  0  0  0  0  0  0  0
   20.4837  -49.9288   51.9061 C   0  0  0  0  0  0  0  0  0  0  0  0
   21.2066  -51.0833   52.3261 C   0  0  0  0  0  0  0  0  0  0  0  0
   20.7145  -52.3317   52.3349 N   0  0  0  0  0  0  0  0  0  0  0  0
   19.4260  -52.3867   51.9593 C   0  0  0  0  0  0  0  0  0  0  0  0
   22.5254  -50.6747   52.7215 N   0  0  0  0  0  0  0  0  0  0  0  0
   21.3773  -53.4405   52.7616 C   0  0  0  0  0  0  0  0  0  0  0  0
   21.4001  -48.8361   52.0187 N   0  0  0  0  0  0  0  0  0  0  0  0
   22.5176  -49.2763   52.5096 C   0  0  0  0  0  0  0  0  0  0  0  0
   23.6814  -48.4503   52.7901 C   0  0  0  0  0  0  0  0  0  0  0  0
  1  2  2  0
  2  3  1  0
  2  4  1  0
  4  5  2  0
  5  6  1  0
  3  7  2  0
  6  7  1  0
  5  8  1  0
  6  9  1  0
  4 10  1  0
  8 11  1  0
 10 11  2  0
 11 12  1  0
M  END
>  <ID>  (1) 
conformer_0

$$$$
