
     RDKit          3D

 15 16  0  0  0  0  0  0  0  0999 V2000
   19.0686  -51.6015   52.1854 C   0  0  0  0  0  0  0  0  0  0  0  0
   20.3230  -52.0683   52.3305 C   0  0  0  0  0  0  0  0  0  0  0  0
   21.4494  -51.2543   52.2145 C   0  0  0  0  0  0  0  0  0  0  0  0
   22.7824  -51.8080   52.4473 C   0  0  0  0  0  0  0  0  0  0  0  0
   23.8174  -50.9671   52.7452 N   0  0  0  0  0  0  0  0  0  0  0  0
   24.7852  -51.3628   53.4785 C   0  0  0  0  0  0  0  0  0  0  0  0
   20.4429  -53.3315   52.7523 N   0  0  0  0  0  0  0  0  0  0  0  0
   19.0993  -50.2149   51.7569 C   0  0  0  0  0  0  0  0  0  0  0  0
   22.9337  -53.0533   52.2747 N   0  0  0  0  0  0  0  0  0  0  0  0
   21.3616  -49.8349   51.8339 C   0  0  0  0  0  0  0  0  0  0  0  0
   25.7757  -50.4952   53.8965 O   0  0  0  0  0  0  0  0  0  0  0  0
   25.2957  -52.7426   53.4455 C   0  0  0  0  0  0  0  0  0  0  0  0
   26.4002  -53.2180   53.9496 C   0  0  0  0  0  0  0  0  0  0  0  0
   24.2294  -53.5461   52.8424 C   0  0  0  0  0  0  0  0  0  0  0  0
   20.2240  -49.4452   51.5299 C   0  0  0  0  0  0  0  0  0  0  0  0
  1  2  1  0
  2  3  2  0
  3  4  1  0
  4  5  1  0
  5  6  1  0
  2  7  1  0
  1  8  2  0
  4  9  2  0
  3 10  1  0
  6 11  2  0
  6 12  1  0
 12 13  1  0
  9 14  1  0
 12 14  2  0
  8 15  1  0
 10 15  2  0
M  END
>  <ID>  (1) 
conformer_0

$$$$
