
     RDKit          3D

 14 14  0  0  0  0  0  0  0  0999 V2000
   18.7485  -50.6341   51.0873 O   0  0  0  0  0  0  0  0  0  0  0  0
   19.5496  -51.1859   51.7701 C   0  0  0  0  0  0  0  0  0  0  0  0
   20.7793  -50.6417   52.0806 C   0  0  0  0  0  0  0  0  0  0  0  0
   21.9183  -51.4450   52.3773 C   0  0  0  0  0  0  0  0  0  0  0  0
   20.9832  -49.2417   52.1917 C   0  0  0  0  0  0  0  0  0  0  0  0
   22.2676  -48.7161   52.5633 C   0  0  0  0  0  0  0  0  0  0  0  0
   23.2696  -49.7718   52.8579 C   0  0  0  0  0  0  0  0  0  0  0  0
   19.1199  -52.2698   52.2775 O   0  0  0  0  0  0  0  0  0  0  0  0
   21.7310  -52.9030   52.2433 O   0  0  0  0  0  0  0  0  0  0  0  0
   23.1349  -51.0006   52.7194 C   0  0  0  0  0  0  0  0  0  0  0  0
   24.5491  -49.0994   53.1914 C   0  0  0  0  0  0  0  0  0  0  0  0
   24.8093  -47.8243   53.1461 O   0  0  0  0  0  0  0  0  0  0  0  0
   22.7657  -53.6679   52.4206 C   0  0  0  0  0  0  0  0  0  0  0  0
   25.3338  -49.8453   53.9873 O   0  0  0  0  0  0  0  0  0  0  0  0
  1  2  2  0
  2  3  1  0
  3  4  2  0
  3  5  1  0
  5  6  2  0
  6  7  1  0
  2  8  1  0
  4  9  1  0
  4 10  1  0
  7 10  2  0
  7 11  1  0
 11 12  2  0
  9 13  1  0
 11 14  1  0
M  END
>  <ID>  (1) 
conformer_0

$$$$
