
     RDKit          3D

 15 16  0  0  0  0  0  0  0  0999 V2000
   19.0300  -49.0053   51.0142 O   0  0  0  0  0  0  0  0  0  0  0  0
   19.2698  -50.1446   51.5692 C   0  0  0  0  0  0  0  0  0  0  0  0
   20.5902  -50.3163   52.0010 C   0  0  0  0  0  0  0  0  0  0  0  0
   21.4734  -49.2975   52.2083 C   0  0  0  0  0  0  0  0  0  0  0  0
   20.8546  -51.5602   52.5127 C   0  0  0  0  0  0  0  0  0  0  0  0
   22.7815  -49.5957   52.7510 C   0  0  0  0  0  0  0  0  0  0  0  0
   19.9052  -52.6015   52.3104 O   0  0  0  0  0  0  0  0  0  0  0  0
   22.1269  -51.8914   52.8663 C   0  0  0  0  0  0  0  0  0  0  0  0
   23.1127  -50.8642   52.9732 C   0  0  0  0  0  0  0  0  0  0  0  0
   24.4846  -51.1282   53.4008 C   0  0  0  0  0  0  0  0  0  0  0  0
   24.9789  -52.3801   53.4887 C   0  0  0  0  0  0  0  0  0  0  0  0
   25.5035  -50.2080   53.7334 C   0  0  0  0  0  0  0  0  0  0  0  0
   18.4209  -50.9578   51.3568 O   0  0  0  0  0  0  0  0  0  0  0  0
   26.4044  -52.3252   54.0079 C   0  0  0  0  0  0  0  0  0  0  0  0
   26.6152  -50.9358   54.1497 N   0  0  0  0  0  0  0  0  0  0  0  0
  1  2  2  0
  2  3  1  0
  3  4  1  0
  3  5  2  0
  4  6  2  0
  5  7  1  0
  5  8  1  0
  6  9  1  0
  8  9  2  0
  9 10  1  0
 10 11  2  0
 10 12  1  0
  2 13  1  0
 11 14  1  0
 12 15  1  0
 14 15  2  0
M  END
>  <ID>  (1) 
conformer_0

$$$$
