
     RDKit          3D

 13 14  0  0  0  0  0  0  0  0999 V2000
   18.6199  -50.2854   51.3439 C   0  0  0  0  0  0  0  0  0  0  0  0
   19.7772  -50.7975   51.6852 C   0  0  0  0  0  0  0  0  0  0  0  0
   20.0224  -52.0948   51.9152 C   0  0  0  0  0  0  0  0  0  0  0  0
   21.2631  -52.5284   52.2848 C   0  0  0  0  0  0  0  0  0  0  0  0
   20.8265  -49.7808   51.8516 C   0  0  0  0  0  0  0  0  0  0  0  0
   22.2550  -51.4599   52.4033 C   0  0  0  0  0  0  0  0  0  0  0  0
   22.0730  -50.2204   52.1614 C   0  0  0  0  0  0  0  0  0  0  0  0
   21.4650  -53.8089   52.5728 O   0  0  0  0  0  0  0  0  0  0  0  0
   20.4920  -48.4629   51.5684 C   0  0  0  0  0  0  0  0  0  0  0  0
   18.7415  -48.8224   51.3406 N   0  0  0  0  0  0  0  0  0  0  0  0
   23.1496  -49.2728   52.3604 C   0  0  0  0  0  0  0  0  0  0  0  0
   17.5633  -50.6565   51.1061 O   0  0  0  0  0  0  0  0  0  0  0  0
   23.5288  -51.9989   52.8234 O   0  0  0  0  0  0  0  0  0  0  0  0
  1  2  1  0
  2  3  1  0
  3  4  2  0
  2  5  2  0
  4  6  1  0
  5  7  1  0
  6  7  2  0
  4  8  1  0
  5  9  1  0
  1 10  1  0
  9 10  1  0
  7 11  1  0
  1 12  2  0
  6 13  1  0
M  END
>  <ID>  (1) 
conformer_0

$$$$
