
     RDKit          3D

 12 13  0  0  0  0  0  0  0  0999 V2000
   18.7231  -49.7640   51.1575 C   0  0  0  0  0  0  0  0  0  0  0  0
   19.6101  -50.6501   51.6926 C   0  0  0  0  0  0  0  0  0  0  0  0
   20.9651  -50.1457   51.8931 C   0  0  0  0  0  0  0  0  0  0  0  0
   21.2983  -48.8816   51.6562 C   0  0  0  0  0  0  0  0  0  0  0  0
   19.3703  -51.8904   52.0274 N   0  0  0  0  0  0  0  0  0  0  0  0
   22.7398  -48.3804   51.8268 C   0  0  0  0  0  0  0  0  0  0  0  0
   19.0816  -48.4490   50.9590 N   0  0  0  0  0  0  0  0  0  0  0  0
   20.3887  -47.9795   51.0635 C   0  0  0  0  0  0  0  0  0  0  0  0
   20.2412  -52.7028   52.4786 C   0  0  0  0  0  0  0  0  0  0  0  0
   23.5749  -49.4079   52.1593 O   0  0  0  0  0  0  0  0  0  0  0  0
   21.6397  -51.8511   52.4736 S   0  0  0  0  0  0  0  0  0  0  0  0
   20.1258  -53.9791   52.8224 N   0  0  0  0  0  0  0  0  0  0  0  0
  1  2  1  0
  2  3  2  0
  3  4  1  0
  2  5  1  0
  4  6  1  0
  1  7  2  0
  4  8  2  0
  7  8  1  0
  5  9  2  0
  6 10  1  0
  3 11  1  0
  9 11  1  0
  9 12  1  0
M  END
>  <ID>  (1) 
conformer_0

$$$$
