
     RDKit          3D

 15 16  0  0  0  0  0  0  0  0999 V2000
   19.8238  -51.3050   51.7390 C   0  0  0  0  0  0  0  0  0  0  0  0
   20.6048  -52.0265   51.9583 C   0  0  0  0  0  0  0  0  0  0  0  0
   21.9282  -51.6341   52.1109 C   0  0  0  0  0  0  0  0  0  0  0  0
   19.9444  -49.8509   51.6401 C   0  0  0  0  0  0  0  0  0  0  0  0
   23.0287  -52.5024   52.5112 C   0  0  0  0  0  0  0  0  0  0  0  0
   22.9399  -53.7428   52.3570 C   0  0  0  0  0  0  0  0  0  0  0  0
   22.1383  -50.1799   52.0545 C   0  0  0  0  0  0  0  0  0  0  0  0
   21.7838  -54.3365   51.7756 O   0  0  0  0  0  0  0  0  0  0  0  0
   24.0184  -54.6843   52.3730 C   0  0  0  0  0  0  0  0  0  0  0  0
   18.8057  -48.9194   51.3035 O   0  0  0  0  0  0  0  0  0  0  0  0
   24.1230  -51.9117   53.1637 C   0  0  0  0  0  0  0  0  0  0  0  0
   23.5311  -49.6318   52.2370 C   0  0  0  0  0  0  0  0  0  0  0  0
   21.1667  -49.3213   51.7578 C   0  0  0  0  0  0  0  0  0  0  0  0
   23.7276  -56.0342   52.5617 O   0  0  0  0  0  0  0  0  0  0  0  0
   24.2889  -50.4675   53.1453 C   0  0  0  0  0  0  0  0  0  0  0  0
  1  2  2  0
  2  3  1  0
  1  4  1  0
  3  5  1  0
  5  6  2  3
  3  7  2  0
  6  8  1  0
  6  9  1  0
  4 10  1  0
  5 11  1  0
  7 12  1  0
  4 13  2  0
  7 13  1  0
  9 14  1  0
 11 15  2  0
 12 15  1  0
M  END
>  <ID>  (1) 
conformer_0

$$$$
