
     RDKit          3D

 14 14  0  0  0  0  0  0  0  0999 V2000
   18.7231  -49.7640   51.1575 O   0  0  0  0  0  0  0  0  0  0  0  0
   19.3576  -50.6918   51.6723 C   0  0  0  0  0  0  0  0  0  0  0  0
   20.7712  -50.4492   51.9559 C   0  0  0  0  0  0  0  0  0  0  0  0
   21.2292  -49.1424   51.9967 C   0  0  0  0  0  0  0  0  0  0  0  0
   21.6589  -51.5098   51.9018 C   0  0  0  0  0  0  0  0  0  0  0  0
   20.3971  -48.0075   51.8815 O   0  0  0  0  0  0  0  0  0  0  0  0
   22.5587  -48.9382   52.1113 C   0  0  0  0  0  0  0  0  0  0  0  0
   23.4713  -50.0396   52.2936 C   0  0  0  0  0  0  0  0  0  0  0  0
   24.8796  -49.8482   52.5909 O   0  0  0  0  0  0  0  0  0  0  0  0
   22.9689  -51.3272   52.1406 C   0  0  0  0  0  0  0  0  0  0  0  0
   25.2669  -50.1867   53.8668 C   0  0  0  0  0  0  0  0  0  0  0  0
   26.0340  -49.3276   54.4579 C   0  0  0  0  0  0  0  0  0  0  0  0
   18.9621  -51.8703   51.8162 O   0  0  0  0  0  0  0  0  0  0  0  0
   25.0699  -51.4279   54.2243 O   0  0  0  0  0  0  0  0  0  0  0  0
  1  2  1  0
  2  3  1  0
  3  4  1  0
  3  5  2  0
  4  6  1  0
  4  7  2  0
  7  8  1  0
  8  9  1  0
  5 10  1  0
  8 10  2  0
  9 11  1  0
 11 12  1  0
  2 13  2  0
 11 14  2  0
M  END
>  <ID>  (1) 
conformer_0

$$$$
