
     RDKit          3D

 14 15  0  0  0  0  0  0  0  0999 V2000
   18.4627  -50.6629   51.6654 N   0  0  0  0  0  0  0  0  0  0  0  0
   18.8811  -49.5200   51.4414 C   0  0  0  0  0  0  0  0  0  0  0  0
   20.2705  -49.2049   51.4838 C   0  0  0  0  0  0  0  0  0  0  0  0
   20.8520  -47.9975   51.2322 C   0  0  0  0  0  0  0  0  0  0  0  0
   20.9264  -50.3768   51.9747 C   0  0  0  0  0  0  0  0  0  0  0  0
   20.3233  -51.5857   52.0847 C   0  0  0  0  0  0  0  0  0  0  0  0
   19.1978  -51.6163   51.9553 C   0  0  0  0  0  0  0  0  0  0  0  0
   22.3728  -50.2080   52.1587 C   0  0  0  0  0  0  0  0  0  0  0  0
   21.2140  -52.6374   52.5811 C   0  0  0  0  0  0  0  0  0  0  0  0
   20.6798  -53.9103   52.7038 C   0  0  0  0  0  0  0  0  0  0  0  0
   19.4475  -54.0847   52.6409 O   0  0  0  0  0  0  0  0  0  0  0  0
   21.4463  -54.9436   52.4702 O   0  0  0  0  0  0  0  0  0  0  0  0
   23.1121  -51.2704   52.6395 C   0  0  0  0  0  0  0  0  0  0  0  0
   22.5633  -52.4801   52.8320 C   0  0  0  0  0  0  0  0  0  0  0  0
  1  2  1  0
  2  3  2  0
  3  4  1  0
  3  5  1  0
  5  6  2  0
  1  7  2  0
  6  7  1  0
  5  8  1  0
  6  9  1  0
  9 10  1  0
 10 11  1  0
 10 12  2  0
  8 13  2  0
  9 14  2  0
 13 14  1  0
M  END
>  <ID>  (1) 
conformer_0

$$$$
