
     RDKit          3D

 15 16  0  0  0  0  0  0  0  0999 V2000
   18.7231  -49.7640   51.1575 O   0  0  0  0  0  0  0  0  0  0  0  0
   19.3576  -50.6918   51.6723 C   0  0  0  0  0  0  0  0  0  0  0  0
   20.7712  -50.4492   51.9559 C   0  0  0  0  0  0  0  0  0  0  0  0
   21.2292  -49.1424   51.9967 C   0  0  0  0  0  0  0  0  0  0  0  0
   21.6589  -51.5098   51.9018 C   0  0  0  0  0  0  0  0  0  0  0  0
   20.3971  -48.0075   51.8815 O   0  0  0  0  0  0  0  0  0  0  0  0
   21.2638  -52.8456   51.7672 C   0  0  0  0  0  0  0  0  0  0  0  0
   22.5744  -48.9793   51.9643 C   0  0  0  0  0  0  0  0  0  0  0  0
   22.1458  -53.8878   51.8958 C   0  0  0  0  0  0  0  0  0  0  0  0
   18.9686  -51.9288   51.5395 C   0  0  0  0  0  0  0  0  0  0  0  0
   23.0129  -51.2721   52.2531 C   0  0  0  0  0  0  0  0  0  0  0  0
   23.4612  -49.9986   52.3125 C   0  0  0  0  0  0  0  0  0  0  0  0
   21.8667  -54.9418   52.6464 O   0  0  0  0  0  0  0  0  0  0  0  0
   23.2525  -53.9209   51.2510 O   0  0  0  0  0  0  0  0  0  0  0  0
   19.9181  -53.0054   51.6824 C   0  0  0  0  0  0  0  0  0  0  0  0
  1  2  1  0
  2  3  1  0
  3  4  1  0
  3  5  2  0
  4  6  1  0
  5  7  1  0
  4  8  2  0
  7  9  1  0
  2 10  2  0
  5 11  1  0
  8 12  1  0
 11 12  2  0
  9 13  1  0
  9 14  2  0
  7 15  2  0
 10 15  1  0
M  END
>  <ID>  (1) 
conformer_0

$$$$
