
     RDKit          3D

 14 16  0  0  0  0  0  0  0  0999 V2000
   18.7575  -50.8466   51.6579 C   0  0  0  0  0  0  0  0  0  0  0  0
   19.7945  -51.6738   51.9183 C   0  0  0  0  0  0  0  0  0  0  0  0
   21.1246  -51.2547   52.0028 C   0  0  0  0  0  0  0  0  0  0  0  0
   22.1587  -52.1284   52.3357 C   0  0  0  0  0  0  0  0  0  0  0  0
   21.2267  -49.8126   51.9467 C   0  0  0  0  0  0  0  0  0  0  0  0
   22.0684  -53.3728   52.3544 C   0  0  0  0  0  0  0  0  0  0  0  0
   18.9968  -49.4706   51.4286 N   0  0  0  0  0  0  0  0  0  0  0  0
   23.3328  -51.4718   52.7597 C   0  0  0  0  0  0  0  0  0  0  0  0
   23.4477  -50.0302   52.7103 C   0  0  0  0  0  0  0  0  0  0  0  0
   23.3468  -53.8899   52.7374 C   0  0  0  0  0  0  0  0  0  0  0  0
   20.2044  -49.0091   51.6192 C   0  0  0  0  0  0  0  0  0  0  0  0
   24.3303  -53.0387   53.1718 C   0  0  0  0  0  0  0  0  0  0  0  0
   22.5514  -49.4472   52.2622 C   0  0  0  0  0  0  0  0  0  0  0  0
   24.3222  -51.9755   53.2307 N   0  0  0  0  0  0  0  0  0  0  0  0
  1  2  1  0
  2  3  2  0
  3  4  1  0
  3  5  1  0
  4  6  2  0
  1  7  2  0
  4  8  1  0
  8  9  2  0
  6 10  1  0
  5 11  2  0
  7 11  1  0
 10 12  2  0
  5 13  1  0
  9 13  1  0
  8 14  1  0
 12 14  1  0
M  END
>  <ID>  (1) 
conformer_0

$$$$
