
     RDKit          3D

 14 15  0  0  0  0  0  0  0  0999 V2000
   18.7485  -50.6341   51.0873 O   0  0  0  0  0  0  0  0  0  0  0  0
   19.8723  -50.7071   51.6321 C   0  0  0  0  0  0  0  0  0  0  0  0
   20.6660  -49.5786   51.7829 C   0  0  0  0  0  0  0  0  0  0  0  0
   21.9239  -49.6465   52.3217 C   0  0  0  0  0  0  0  0  0  0  0  0
   22.7575  -48.4909   52.5176 C   0  0  0  0  0  0  0  0  0  0  0  0
   22.1715  -47.4001   52.2744 O   0  0  0  0  0  0  0  0  0  0  0  0
   22.4303  -50.9598   52.5114 C   0  0  0  0  0  0  0  0  0  0  0  0
   20.4339  -51.9578   51.9453 C   0  0  0  0  0  0  0  0  0  0  0  0
   23.8072  -51.0233   53.0046 N   0  0  0  0  0  0  0  0  0  0  0  0
   21.6718  -52.0487   52.3961 C   0  0  0  0  0  0  0  0  0  0  0  0
   23.9403  -48.5350   52.9909 N   0  0  0  0  0  0  0  0  0  0  0  0
   22.2754  -53.3983   52.6895 C   0  0  0  0  0  0  0  0  0  0  0  0
   24.5219  -49.8253   53.2647 C   0  0  0  0  0  0  0  0  0  0  0  0
   25.9033  -49.8885   53.8235 C   0  0  0  0  0  0  0  0  0  0  0  0
  1  2  1  0
  2  3  2  0
  3  4  1  0
  4  5  1  0
  5  6  2  0
  4  7  2  0
  2  8  1  0
  7  9  1  0
  7 10  1  0
  8 10  2  0
  5 11  1  0
 10 12  1  0
  9 13  2  0
 11 13  1  0
 13 14  1  0
M  END
>  <ID>  (1) 
conformer_0

$$$$
