
     RDKit          3D

 14 16  0  0  0  0  0  0  0  0999 V2000
   18.8584  -49.0070   51.0450 O   0  0  0  0  0  0  0  0  0  0  0  0
   19.9206  -49.0435   51.5117 C   0  0  0  0  0  0  0  0  0  0  0  0
   20.6139  -48.0229   51.7593 C   0  0  0  0  0  0  0  0  0  0  0  0
   21.8968  -48.0638   52.3244 C   0  0  0  0  0  0  0  0  0  0  0  0
   20.5134  -50.3119   51.7559 C   0  0  0  0  0  0  0  0  0  0  0  0
   22.4772  -49.3051   52.5885 C   0  0  0  0  0  0  0  0  0  0  0  0
   21.7346  -50.4563   52.2987 C   0  0  0  0  0  0  0  0  0  0  0  0
   22.3021  -51.7085   52.5689 C   0  0  0  0  0  0  0  0  0  0  0  0
   23.7663  -49.3498   53.1558 C   0  0  0  0  0  0  0  0  0  0  0  0
   24.2679  -50.6584   53.4256 C   0  0  0  0  0  0  0  0  0  0  0  0
   21.5904  -52.8716   52.3196 C   0  0  0  0  0  0  0  0  0  0  0  0
   19.8599  -51.5798   51.5735 N   0  0  0  0  0  0  0  0  0  0  0  0
   23.6099  -51.8959   53.1924 C   0  0  0  0  0  0  0  0  0  0  0  0
   20.2865  -52.7002   51.8071 C   0  0  0  0  0  0  0  0  0  0  0  0
  1  2  2  0
  2  3  1  0
  3  4  2  0
  2  5  1  0
  4  6  1  0
  5  7  1  0
  6  7  2  0
  7  8  1  0
  6  9  1  0
  9 10  2  0
  8 11  1  0
  5 12  2  0
  8 13  2  0
 10 13  1  0
 11 14  2  0
 12 14  1  0
M  END
>  <ID>  (1) 
conformer_0

$$$$
