
     RDKit          3D

 40 45  0  0  0  0  0  0  0  0999 V2000
   19.4058    8.4872   32.3854 O   0  0  0  0  0  0  0  0  0  0  0  0
   20.2663    8.7044   31.5522 C   0  0  0  0  0  0  0  0  0  0  0  0
   20.0856    8.5641   30.1900 N   0  0  0  0  0  0  0  0  0  0  0  0
   20.9375    8.7163   29.3673 C   0  0  0  0  0  0  0  0  0  0  0  0
   18.6794    8.6381   29.6976 C   0  0  0  0  0  0  0  0  0  0  0  0
   21.5302    9.2567   31.9686 N   0  0  0  0  0  0  0  0  0  0  0  0
   18.5377    8.1460   28.3857 C   0  0  0  0  0  0  0  0  0  0  0  0
   19.6791    8.2732   27.6464 C   0  0  0  0  0  0  0  0  0  0  0  0
   21.7829    9.4367   33.3389 C   0  0  0  0  0  0  0  0  0  0  0  0
   22.5323    8.2703   34.0330 C   0  0  0  0  0  0  0  0  0  0  0  0
   20.8693    8.1056   28.1161 C   0  0  0  0  0  0  0  0  0  0  0  0
   22.9835   10.4882   33.3100 C   0  0  0  0  0  0  0  0  0  0  0  0
   17.3248    8.2286   27.7560 C   0  0  0  0  0  0  0  0  0  0  0  0
   22.1650    9.3022   29.6039 C   0  0  0  0  0  0  0  0  0  0  0  0
   24.1905   10.0226   33.8583 N   0  0  0  0  0  0  0  0  0  0  0  0
   21.9501    8.0032   27.2544 C   0  0  0  0  0  0  0  0  0  0  0  0
   24.8433   10.8330   34.8368 C   0  0  0  0  0  0  0  0  0  0  0  0
   19.5182    7.5773   26.3080 C   0  0  0  0  0  0  0  0  0  0  0  0
   23.8399    8.6134   34.3259 C   0  0  0  0  0  0  0  0  0  0  0  0
   16.4184    8.7174   28.3341 O   0  0  0  0  0  0  0  0  0  0  0  0
   21.8608    7.8742   25.9570 C   0  0  0  0  0  0  0  0  0  0  0  0
   22.4725    9.5603   31.0456 C   0  0  0  0  0  0  0  0  0  0  0  0
   26.2792   10.8642   34.6516 C   0  0  0  0  0  0  0  0  0  0  0  0
   18.1622    7.3280   25.8784 C   0  0  0  0  0  0  0  0  0  0  0  0
   22.8942    7.6337   25.1026 O   0  0  0  0  0  0  0  0  0  0  0  0
   20.5927    7.4743   25.3799 C   0  0  0  0  0  0  0  0  0  0  0  0
   18.0133    6.7080   24.5229 C   0  0  0  0  0  0  0  0  0  0  0  0
   27.0448   11.8756   35.3046 C   0  0  0  0  0  0  0  0  0  0  0  0
   17.1639    7.6376   26.6263 N   0  0  0  0  0  0  0  0  0  0  0  0
   26.2188   12.7324   36.0004 C   0  0  0  0  0  0  0  0  0  0  0  0
   28.4967   11.8333   35.1300 C   0  0  0  0  0  0  0  0  0  0  0  0
   15.8332    7.2601   26.1335 C   0  0  0  0  0  0  0  0  0  0  0  0
   14.7458    7.8238   26.7483 C   0  0  0  0  0  0  0  0  0  0  0  0
   24.3192   11.8302   35.4747 C   0  0  0  0  0  0  0  0  0  0  0  0
   29.2476   12.6669   35.7861 C   0  0  0  0  0  0  0  0  0  0  0  0
   22.8351   11.8488   35.6936 F   0  0  0  0  0  0  0  0  0  0  0  0
   24.1625    8.4943   35.7301 O   0  0  0  0  0  0  0  0  0  0  0  0
   14.0879    8.5826   25.7673 O   0  0  0  0  0  0  0  0  0  0  0  0
   24.9435   12.9102   36.2490 C   0  0  0  0  0  0  0  0  0  0  0  0
   30.6883   12.1923   35.6181 N   0  0  0  0  0  0  0  0  0  0  0  0
  1  2  2  0
  2  3  1  0
  3  4  1  0
  3  5  1  0
  2  6  1  0
  5  7  1  0
  7  8  1  0
  6  9  1  0
  9 10  1  0
  4 11  1  0
  8 11  1  0
  9 12  1  0
  7 13  1  0
  4 14  2  0
 12 15  1  0
 11 16  2  0
 15 17  1  0
  8 18  1  0
 10 19  1  0
 15 19  1  0
 13 20  2  0
 16 21  1  0
  6 22  1  0
 14 22  1  0
 17 23  1  0
 18 24  2  0
 21 25  1  0
 18 26  1  0
 21 26  2  0
 24 27  1  0
 23 28  2  0
 13 29  1  0
 24 29  1  0
 28 30  1  0
 28 31  1  0
 29 32  1  0
 32 33  1  0
 17 34  2  0
 31 35  2  3
 34 36  1  0
 19 37  1  0
 33 38  1  0
 30 39  2  0
 34 39  1  0
 35 40  1  0
M  END
>  <ID>  (1) 
conformer_0

$$$$
