
     RDKit          3D

 33 37  0  0  0  0  0  0  0  0999 V2000
   22.3866    9.7850   31.2957 C   0  0  0  0  0  0  0  0  0  0  0  0
   22.6903    9.5705   32.4623 C   0  0  0  0  0  0  0  0  0  0  0  0
   21.9892    8.6887   33.3683 C   0  0  0  0  0  0  0  0  0  0  0  0
   21.3656    9.0068   30.6274 C   0  0  0  0  0  0  0  0  0  0  0  0
   23.7326   10.2715   33.2357 C   0  0  0  0  0  0  0  0  0  0  0  0
   24.1902    9.6652   34.2601 N   0  0  0  0  0  0  0  0  0  0  0  0
   20.8494    8.0093   32.8080 N   0  0  0  0  0  0  0  0  0  0  0  0
   23.3414    8.9312   35.0863 C   0  0  0  0  0  0  0  0  0  0  0  0
   25.3042   10.3283   34.9549 C   0  0  0  0  0  0  0  0  0  0  0  0
   20.5922    8.1659   31.5039 C   0  0  0  0  0  0  0  0  0  0  0  0
   21.1026    9.1822   29.1484 C   0  0  0  0  0  0  0  0  0  0  0  0
   23.7403    8.7269   36.3399 N   0  0  0  0  0  0  0  0  0  0  0  0
   26.5038    9.5355   34.7315 C   0  0  0  0  0  0  0  0  0  0  0  0
   22.3450    8.3768   34.7075 N   0  0  0  0  0  0  0  0  0  0  0  0
   26.5386    8.2621   34.2634 F   0  0  0  0  0  0  0  0  0  0  0  0
   19.9320    9.1075   28.7673 N   0  0  0  0  0  0  0  0  0  0  0  0
   18.7550    9.1022   29.4342 C   0  0  0  0  0  0  0  0  0  0  0  0
   27.8361   10.0837   34.9627 C   0  0  0  0  0  0  0  0  0  0  0  0
   17.6961    8.1113   28.9159 C   0  0  0  0  0  0  0  0  0  0  0  0
   27.8044   11.4820   35.4353 C   0  0  0  0  0  0  0  0  0  0  0  0
   22.0826    9.5837   28.4303 O   0  0  0  0  0  0  0  0  0  0  0  0
   28.9770    9.4522   34.7975 C   0  0  0  0  0  0  0  0  0  0  0  0
   17.3888    8.2125   27.7323 N   0  0  0  0  0  0  0  0  0  0  0  0
   19.7047    8.8007   27.1884 C   0  0  0  0  0  0  0  0  0  0  0  0
   25.5936   11.7225   35.1993 C   0  0  0  0  0  0  0  0  0  0  0  0
   26.7434   12.2017   35.5481 C   0  0  0  0  0  0  0  0  0  0  0  0
   29.0143   12.0447   35.6395 N   0  0  0  0  0  0  0  0  0  0  0  0
   30.2019   11.3248   35.5511 C   0  0  0  0  0  0  0  0  0  0  0  0
   18.6379    7.7786   26.9890 C   0  0  0  0  0  0  0  0  0  0  0  0
   19.1119    6.4229   27.2235 C   0  0  0  0  0  0  0  0  0  0  0  0
   16.8429    9.3245   27.1395 C   0  0  0  0  0  0  0  0  0  0  0  0
   29.0598    8.1347   34.4025 O   0  0  0  0  0  0  0  0  0  0  0  0
   30.2536   10.0365   35.1389 N   0  0  0  0  0  0  0  0  0  0  0  0
  1  2  2  0
  2  3  1  0
  1  4  1  0
  2  5  1  0
  5  6  1  0
  3  7  2  0
  6  8  1  0
  6  9  1  0
  4 10  2  0
  7 10  1  0
  4 11  1  0
  8 12  1  0
  9 13  2  0
  3 14  1  0
  8 14  2  0
 13 15  1  0
 11 16  1  0
 16 17  1  0
 13 18  1  0
 17 19  1  0
 18 20  2  0
 11 21  2  0
 18 22  1  0
 19 23  1  0
 16 24  1  0
  9 25  1  0
 20 26  1  0
 25 26  2  0
 20 27  1  0
 27 28  2  0
 23 29  1  0
 24 29  1  0
 29 30  1  0
 23 31  1  0
 22 32  1  0
 22 33  2  0
 28 33  1  0
M  END
>  <ID>  (1) 
conformer_0

$$$$
