
     RDKit          3D

 13 14  0  0  0  0  0  0  0  0999 V2000
   20.5294    7.3991   25.9350 C   0  0  0  0  0  0  0  0  0  0  0  0
   21.5877    7.8253   26.4059 C   0  0  0  0  0  0  0  0  0  0  0  0
   22.8422    7.9818   25.8448 C   0  0  0  0  0  0  0  0  0  0  0  0
   21.4909    8.3745   27.8749 C   0  0  0  0  0  0  0  0  0  0  0  0
   20.2721    8.3276   28.5310 C   0  0  0  0  0  0  0  0  0  0  0  0
   19.1539    7.7632   27.8911 C   0  0  0  0  0  0  0  0  0  0  0  0
   23.8020    8.2596   25.6297 N   0  0  0  0  0  0  0  0  0  0  0  0
   19.2869    7.2268   26.4964 C   0  0  0  0  0  0  0  0  0  0  0  0
   17.9985    6.7333   25.8718 C   0  0  0  0  0  0  0  0  0  0  0  0
   16.8236    7.2945   26.2106 C   0  0  0  0  0  0  0  0  0  0  0  0
   16.7819    8.4096   26.7152 C   0  0  0  0  0  0  0  0  0  0  0  0
   17.8638    7.6034   28.6104 C   0  0  0  0  0  0  0  0  0  0  0  0
   16.8985    8.6112   28.1417 N   0  0  0  0  0  0  0  0  0  0  0  0
  1  2  1  0
  2  3  1  0
  2  4  2  0
  4  5  1  0
  5  6  2  0
  3  7  3  0
  1  8  2  0
  6  8  1  0
  8  9  1  0
  9 10  1  0
 10 11  1  0
  6 12  1  0
 11 13  1  0
 12 13  1  0
M  END
>  <ID>  (1) 
conformer_0

$$$$
