
     RDKit          3D

 19 22  0  0  0  0  0  0  0  0999 V2000
   22.0927    8.2392   27.5194 C   0  0  0  0  0  0  0  0  0  0  0  0
   20.9246    7.9197   27.2559 C   0  0  0  0  0  0  0  0  0  0  0  0
   20.4414    7.3736   26.1350 C   0  0  0  0  0  0  0  0  0  0  0  0
   21.2942    7.1850   25.1003 C   0  0  0  0  0  0  0  0  0  0  0  0
   19.0253    7.0466   25.9236 C   0  0  0  0  0  0  0  0  0  0  0  0
   22.5924    8.8064   28.7785 C   0  0  0  0  0  0  0  0  0  0  0  0
   18.5020    6.2323   25.2707 O   0  0  0  0  0  0  0  0  0  0  0  0
   21.5726    9.3899   29.5638 C   0  0  0  0  0  0  0  0  0  0  0  0
   18.1066    7.6117   26.7815 N   0  0  0  0  0  0  0  0  0  0  0  0
   18.3853    8.5814   27.7897 C   0  0  0  0  0  0  0  0  0  0  0  0
   16.5332    7.3060   26.6085 C   0  0  0  0  0  0  0  0  0  0  0  0
   15.7209    8.2548   27.0607 O   0  0  0  0  0  0  0  0  0  0  0  0
   22.5979    7.5887   25.3026 C   0  0  0  0  0  0  0  0  0  0  0  0
   17.4503    8.7355   28.8394 C   0  0  0  0  0  0  0  0  0  0  0  0
   19.9407    8.2140   28.4258 C   0  0  0  0  0  0  0  0  0  0  0  0
   16.3887    9.2467   27.7694 C   0  0  0  0  0  0  0  0  0  0  0  0
   20.3669    9.2796   29.1810 N   0  0  0  0  0  0  0  0  0  0  0  0
   21.9789   10.0367   30.6720 O   0  0  0  0  0  0  0  0  0  0  0  0
   23.0719    8.0667   26.5072 C   0  0  0  0  0  0  0  0  0  0  0  0
  1  2  1  0
  2  3  2  0
  3  4  1  0
  3  5  1  0
  1  6  1  0
  5  7  2  0
  6  8  1  0
  5  9  1  0
  9 10  1  0
  9 11  1  0
 11 12  1  0
  4 13  2  0
 10 14  1  0
  2 15  1  0
 10 15  1  0
 12 16  1  0
 14 16  1  0
  8 17  1  0
 15 17  1  0
  8 18  2  0
  1 19  2  0
 13 19  1  0
M  END
>  <ID>  (1) 
conformer_0

$$$$
