
     RDKit          3D

 36 41  0  0  0  0  0  0  0  0999 V2000
   19.4058    8.4872   32.3854 O   0  0  0  0  0  0  0  0  0  0  0  0
   20.2663    8.7044   31.5522 C   0  0  0  0  0  0  0  0  0  0  0  0
   20.0856    8.5641   30.1900 N   0  0  0  0  0  0  0  0  0  0  0  0
   20.9375    8.7163   29.3673 C   0  0  0  0  0  0  0  0  0  0  0  0
   18.6794    8.6381   29.6976 C   0  0  0  0  0  0  0  0  0  0  0  0
   21.5302    9.2567   31.9686 N   0  0  0  0  0  0  0  0  0  0  0  0
   18.5377    8.1460   28.3857 C   0  0  0  0  0  0  0  0  0  0  0  0
   19.6791    8.2732   27.6464 C   0  0  0  0  0  0  0  0  0  0  0  0
   21.7829    9.4367   33.3389 C   0  0  0  0  0  0  0  0  0  0  0  0
   22.2463    9.0495   29.7641 C   0  0  0  0  0  0  0  0  0  0  0  0
   20.8571    8.6151   27.9854 C   0  0  0  0  0  0  0  0  0  0  0  0
   22.6579   10.4990   33.6211 O   0  0  0  0  0  0  0  0  0  0  0  0
   22.4692    8.2060   33.9629 C   0  0  0  0  0  0  0  0  0  0  0  0
   22.0614    8.5263   27.1287 C   0  0  0  0  0  0  0  0  0  0  0  0
   19.4887    7.9543   26.1376 C   0  0  0  0  0  0  0  0  0  0  0  0
   22.6123    9.3233   31.1283 C   0  0  0  0  0  0  0  0  0  0  0  0
   23.3342    8.6545   35.0222 C   0  0  0  0  0  0  0  0  0  0  0  0
   23.4297   10.1903   34.7877 C   0  0  0  0  0  0  0  0  0  0  0  0
   24.5216   10.9735   35.0295 C   0  0  0  0  0  0  0  0  0  0  0  0
   25.8560   10.3266   34.7740 C   0  0  0  0  0  0  0  0  0  0  0  0
   27.0481   11.0422   34.9858 C   0  0  0  0  0  0  0  0  0  0  0  0
   24.5682   12.2161   35.4245 C   0  0  0  0  0  0  0  0  0  0  0  0
   26.0689    9.0251   34.1654 C   0  0  0  0  0  0  0  0  0  0  0  0
   27.4217    8.7058   34.1322 C   0  0  0  0  0  0  0  0  0  0  0  0
   28.4828    9.4256   34.4916 C   0  0  0  0  0  0  0  0  0  0  0  0
   28.4363   10.5829   34.9642 C   0  0  0  0  0  0  0  0  0  0  0  0
   22.0707    7.7900   26.0505 C   0  0  0  0  0  0  0  0  0  0  0  0
   23.1161    7.8052   25.1514 O   0  0  0  0  0  0  0  0  0  0  0  0
   20.7239    7.2341   25.6203 C   0  0  0  0  0  0  0  0  0  0  0  0
   26.6817   12.4101   35.7035 C   0  0  0  0  0  0  0  0  0  0  0  0
   17.2999    7.9679   27.9741 O   0  0  0  0  0  0  0  0  0  0  0  0
   29.8453    8.9090   34.3706 C   0  0  0  0  0  0  0  0  0  0  0  0
   30.1847    7.7929   34.9654 N   0  0  0  0  0  0  0  0  0  0  0  0
   30.7068    9.6245   33.8377 O   0  0  0  0  0  0  0  0  0  0  0  0
   27.9497   13.2133   36.0926 O   0  0  0  0  0  0  0  0  0  0  0  0
   25.5264   12.9670   35.8918 C   0  0  0  0  0  0  0  0  0  0  0  0
  1  2  2  0
  2  3  1  0
  3  4  1  0
  3  5  1  0
  2  6  1  0
  5  7  1  0
  7  8  1  0
  6  9  1  0
  4 10  2  0
  4 11  1  0
  8 11  2  0
  9 12  1  0
  9 13  1  0
 11 14  1  0
  8 15  1  0
  6 16  1  0
 10 16  1  0
 13 17  1  0
 12 18  1  0
 17 18  1  0
 18 19  1  0
 19 20  2  0
 20 21  1  0
 19 22  1  0
 20 23  1  0
 23 24  2  0
 24 25  1  0
 21 26  1  0
 25 26  2  0
 14 27  2  0
 27 28  1  0
 15 29  2  0
 27 29  1  0
 21 30  2  0
  7 31  2  0
 25 32  1  0
 32 33  1  0
 32 34  2  0
 30 35  1  0
 22 36  2  0
 30 36  1  0
M  END
>  <ID>  (1) 
conformer_0

$$$$
