
     RDKit          3D

 39 45  0  0  0  0  0  0  0  0999 V2000
   19.4058    8.4872   32.3854 O   0  0  0  0  0  0  0  0  0  0  0  0
   20.2663    8.7044   31.5522 C   0  0  0  0  0  0  0  0  0  0  0  0
   20.0856    8.5641   30.1900 N   0  0  0  0  0  0  0  0  0  0  0  0
   20.9375    8.7163   29.3673 C   0  0  0  0  0  0  0  0  0  0  0  0
   18.6794    8.6381   29.6976 C   0  0  0  0  0  0  0  0  0  0  0  0
   21.5302    9.2567   31.9686 N   0  0  0  0  0  0  0  0  0  0  0  0
   18.5377    8.1460   28.3857 C   0  0  0  0  0  0  0  0  0  0  0  0
   19.6791    8.2732   27.6464 C   0  0  0  0  0  0  0  0  0  0  0  0
   21.7829    9.4367   33.3389 C   0  0  0  0  0  0  0  0  0  0  0  0
   22.5323    8.2703   34.0330 C   0  0  0  0  0  0  0  0  0  0  0  0
   20.8693    8.1056   28.1161 C   0  0  0  0  0  0  0  0  0  0  0  0
   22.9835   10.4882   33.3100 C   0  0  0  0  0  0  0  0  0  0  0  0
   17.3248    8.2286   27.7560 C   0  0  0  0  0  0  0  0  0  0  0  0
   22.1650    9.3022   29.6039 C   0  0  0  0  0  0  0  0  0  0  0  0
   24.1905   10.0226   33.8583 N   0  0  0  0  0  0  0  0  0  0  0  0
   21.9501    8.0032   27.2544 C   0  0  0  0  0  0  0  0  0  0  0  0
   24.8433   10.8330   34.8368 C   0  0  0  0  0  0  0  0  0  0  0  0
   19.5182    7.5773   26.3080 C   0  0  0  0  0  0  0  0  0  0  0  0
   23.8399    8.6134   34.3259 C   0  0  0  0  0  0  0  0  0  0  0  0
   18.2324    7.2695   25.7885 C   0  0  0  0  0  0  0  0  0  0  0  0
   26.2410   10.9745   34.6451 N   0  0  0  0  0  0  0  0  0  0  0  0
   20.6320    7.3058   25.5573 C   0  0  0  0  0  0  0  0  0  0  0  0
   16.3253    8.5669   28.4819 O   0  0  0  0  0  0  0  0  0  0  0  0
   17.1628    7.6305   26.5947 N   0  0  0  0  0  0  0  0  0  0  0  0
   27.0319   11.7897   35.2867 C   0  0  0  0  0  0  0  0  0  0  0  0
   23.3543    8.3825   27.7873 C   0  0  0  0  0  0  0  0  0  0  0  0
   28.4351   11.5914   35.2717 C   0  0  0  0  0  0  0  0  0  0  0  0
   26.6727   12.8117   35.9238 O   0  0  0  0  0  0  0  0  0  0  0  0
   21.8772    7.5946   25.9964 C   0  0  0  0  0  0  0  0  0  0  0  0
   28.9807   10.2531   34.9507 C   0  0  0  0  0  0  0  0  0  0  0  0
   17.9932    6.7364   24.7405 O   0  0  0  0  0  0  0  0  0  0  0  0
   22.0890   10.0784   30.9619 C   0  0  0  0  0  0  0  0  0  0  0  0
   28.0659    9.2681   34.6151 N   0  0  0  0  0  0  0  0  0  0  0  0
   24.2439   11.6735   35.5248 O   0  0  0  0  0  0  0  0  0  0  0  0
   23.3048    9.0734   28.8992 N   0  0  0  0  0  0  0  0  0  0  0  0
   26.7868    9.5050   34.4826 C   0  0  0  0  0  0  0  0  0  0  0  0
   30.2857   10.0025   34.9930 N   0  0  0  0  0  0  0  0  0  0  0  0
   15.8737    7.6400   25.9459 C   0  0  0  0  0  0  0  0  0  0  0  0
   26.0128    8.6125   34.0501 O   0  0  0  0  0  0  0  0  0  0  0  0
  1  2  2  0
  2  3  1  0
  3  4  1  0
  3  5  1  0
  2  6  1  0
  5  7  1  0
  7  8  1  0
  6  9  1  0
  9 10  1  0
  4 11  1  0
  8 11  1  0
  9 12  1  0
  7 13  1  0
  4 14  2  0
 12 15  1  0
 11 16  2  0
 15 17  1  0
  8 18  1  0
 10 19  1  0
 15 19  1  0
 18 20  1  0
 17 21  1  0
 18 22  2  0
 13 23  2  0
 13 24  1  0
 20 24  1  0
 21 25  1  0
 16 26  1  0
 25 27  1  0
 25 28  2  0
 16 29  1  0
 22 29  1  0
 27 30  2  0
 20 31  2  0
  6 32  1  0
 14 32  1  0
 30 33  1  0
 17 34  2  0
 14 35  1  0
 26 35  2  0
 21 36  1  0
 33 36  1  0
 30 37  1  0
 24 38  1  0
 36 39  2  0
M  END
>  <ID>  (1) 
conformer_0

$$$$
