
     RDKit          3D

 11 12  0  0  0  0  0  0  0  0999 V2000
   30.3540   10.7596   35.4296 N   0  0  0  0  0  0  0  0  0  0  0  0
   29.4169    9.8041   35.1424 C   0  0  0  0  0  0  0  0  0  0  0  0
   28.1158   10.3711   35.0724 C   0  0  0  0  0  0  0  0  0  0  0  0
   27.8600   11.7020   35.4497 C   0  0  0  0  0  0  0  0  0  0  0  0
   29.7520    8.5456   34.5706 C   0  0  0  0  0  0  0  0  0  0  0  0
   26.8934    9.6190   34.5956 C   0  0  0  0  0  0  0  0  0  0  0  0
   29.9659   11.9796   35.8793 C   0  0  0  0  0  0  0  0  0  0  0  0
   26.8317    8.5757   33.9348 O   0  0  0  0  0  0  0  0  0  0  0  0
   26.4555   12.0912   35.4596 C   0  0  0  0  0  0  0  0  0  0  0  0
   25.7010   10.4730   34.8974 N   0  0  0  0  0  0  0  0  0  0  0  0
   28.8022   12.5235   35.9220 C   0  0  0  0  0  0  0  0  0  0  0  0
  1  2  1  0
  2  3  2  0
  3  4  1  0
  2  5  1  0
  3  6  1  0
  1  7  2  0
  6  8  2  0
  4  9  1  0
  6 10  1  0
  9 10  2  0
  4 11  2  0
  7 11  1  0
M  END
>  <ID>  (1) 
conformer_0

$$$$
