
     RDKit          3D

 33 38  0  0  0  0  0  0  0  0999 V2000
   22.3866    9.7850   31.2957 C   0  0  0  0  0  0  0  0  0  0  0  0
   22.6903    9.5705   32.4623 C   0  0  0  0  0  0  0  0  0  0  0  0
   21.9892    8.6887   33.3683 C   0  0  0  0  0  0  0  0  0  0  0  0
   21.3656    9.0068   30.6274 C   0  0  0  0  0  0  0  0  0  0  0  0
   23.7326   10.2715   33.2357 C   0  0  0  0  0  0  0  0  0  0  0  0
   24.1902    9.6652   34.2601 N   0  0  0  0  0  0  0  0  0  0  0  0
   20.8494    8.0093   32.8080 N   0  0  0  0  0  0  0  0  0  0  0  0
   23.3414    8.9312   35.0863 C   0  0  0  0  0  0  0  0  0  0  0  0
   25.3042   10.3283   34.9549 C   0  0  0  0  0  0  0  0  0  0  0  0
   20.5922    8.1659   31.5039 C   0  0  0  0  0  0  0  0  0  0  0  0
   21.0949    9.1586   29.2384 C   0  0  0  0  0  0  0  0  0  0  0  0
   25.4215   11.4923   35.3663 C   0  0  0  0  0  0  0  0  0  0  0  0
   26.4093    9.4731   34.9619 C   0  0  0  0  0  0  0  0  0  0  0  0
   26.4255    8.1475   34.4735 F   0  0  0  0  0  0  0  0  0  0  0  0
   22.0025    9.1334   28.3692 C   0  0  0  0  0  0  0  0  0  0  0  0
   22.3313    8.3894   34.7056 N   0  0  0  0  0  0  0  0  0  0  0  0
   19.7635    9.4339   28.6974 C   0  0  0  0  0  0  0  0  0  0  0  0
   18.5927    9.7629   29.6169 C   0  0  0  0  0  0  0  0  0  0  0  0
   27.7381    9.9609   35.2037 C   0  0  0  0  0  0  0  0  0  0  0  0
   19.6954    9.2319   27.4165 C   0  0  0  0  0  0  0  0  0  0  0  0
   28.9613    9.1035   35.0037 C   0  0  0  0  0  0  0  0  0  0  0  0
   18.2506    9.3827   26.8383 C   0  0  0  0  0  0  0  0  0  0  0  0
   26.7144   12.0265   35.7585 C   0  0  0  0  0  0  0  0  0  0  0  0
   26.7840   13.3778   36.3043 C   0  0  0  0  0  0  0  0  0  0  0  0
   27.8381   11.2572   35.6470 C   0  0  0  0  0  0  0  0  0  0  0  0
   20.6811    8.9814   26.5910 N   0  0  0  0  0  0  0  0  0  0  0  0
   21.8996    8.8926   27.0768 C   0  0  0  0  0  0  0  0  0  0  0  0
   17.2792    9.0857   27.6583 C   0  0  0  0  0  0  0  0  0  0  0  0
   29.0737   11.8269   35.9130 C   0  0  0  0  0  0  0  0  0  0  0  0
   30.1377    9.7190   35.2682 N   0  0  0  0  0  0  0  0  0  0  0  0
   17.3808   10.0273   28.7860 N   0  0  0  0  0  0  0  0  0  0  0  0
   28.8341    7.7177   34.6785 O   0  0  0  0  0  0  0  0  0  0  0  0
   30.2377   11.0095   35.6981 C   0  0  0  0  0  0  0  0  0  0  0  0
  1  2  2  0
  2  3  1  0
  1  4  1  0
  2  5  1  0
  5  6  1  0
  3  7  2  0
  6  8  1  0
  6  9  1  0
  4 10  2  0
  7 10  1  0
  4 11  1  0
  9 12  1  0
  9 13  2  0
 13 14  1  0
 11 15  2  0
  3 16  1  0
  8 16  2  0
 11 17  1  0
 17 18  1  0
 13 19  1  0
 17 20  2  0
 19 21  1  0
 20 22  1  0
 12 23  2  0
 23 24  1  0
 19 25  2  0
 23 25  1  0
 20 26  1  0
 15 27  1  0
 26 27  2  0
 22 28  1  0
 25 29  1  0
 21 30  2  0
 18 31  1  0
 28 31  1  0
 21 32  1  0
 29 33  2  0
 30 33  1  0
M  END
>  <ID>  (1) 
conformer_0

$$$$
