
     RDKit          3D

 23 26  0  0  0  0  0  0  0  0999 V2000
   22.0927    8.2392   27.5194 C   0  0  0  0  0  0  0  0  0  0  0  0
   21.7747    8.8355   28.4692 C   0  0  0  0  0  0  0  0  0  0  0  0
   22.5919    9.3241   29.5436 C   0  0  0  0  0  0  0  0  0  0  0  0
   20.3169    8.9758   28.6181 C   0  0  0  0  0  0  0  0  0  0  0  0
   23.5388    8.0671   27.0554 O   0  0  0  0  0  0  0  0  0  0  0  0
   22.3110    8.9665   30.8575 C   0  0  0  0  0  0  0  0  0  0  0  0
   21.2135    7.7025   26.5144 C   0  0  0  0  0  0  0  0  0  0  0  0
   23.0000    9.5448   31.9833 C   0  0  0  0  0  0  0  0  0  0  0  0
   22.9381    8.9265   33.3025 C   0  0  0  0  0  0  0  0  0  0  0  0
   19.7999    9.6796   29.8596 C   0  0  0  0  0  0  0  0  0  0  0  0
   24.0083    9.2105   34.1308 C   0  0  0  0  0  0  0  0  0  0  0  0
   21.8261    8.2509   33.6813 C   0  0  0  0  0  0  0  0  0  0  0  0
   21.7715    7.1214   25.3000 C   0  0  0  0  0  0  0  0  0  0  0  0
   18.5321    9.3218   30.2933 N   0  0  0  0  0  0  0  0  0  0  0  0
   20.7140    9.5579   31.1617 C   0  0  0  0  0  0  0  0  0  0  0  0
   22.0494    7.9691   35.1227 C   0  0  0  0  0  0  0  0  0  0  0  0
   19.9430    7.8291   26.7847 C   0  0  0  0  0  0  0  0  0  0  0  0
   18.2215    9.2793   31.5141 C   0  0  0  0  0  0  0  0  0  0  0  0
   23.1608    8.3283   35.7242 N   0  0  0  0  0  0  0  0  0  0  0  0
   19.4419    9.1146   32.3647 C   0  0  0  0  0  0  0  0  0  0  0  0
   19.4765    8.4595   27.8716 C   0  0  0  0  0  0  0  0  0  0  0  0
   24.0367    9.0903   35.3166 C   0  0  0  0  0  0  0  0  0  0  0  0
   17.2401    9.6388   32.1012 O   0  0  0  0  0  0  0  0  0  0  0  0
  1  2  2  0
  2  3  1  0
  2  4  1  0
  1  5  1  0
  3  6  1  0
  1  7  1  0
  6  8  1  0
  8  9  1  0
  4 10  1  0
  9 11  1  0
  9 12  2  0
  7 13  1  0
 10 14  1  0
  6 15  1  0
 10 15  1  0
 12 16  1  0
  7 17  2  0
 14 18  1  0
 16 19  2  0
 15 20  1  0
 18 20  1  0
  4 21  2  0
 17 21  1  0
 11 22  2  0
 19 22  1  0
 18 23  2  0
M  END
>  <ID>  (1) 
conformer_0

$$$$
