
     RDKit          3D

 41 47  0  0  0  0  0  0  0  0999 V2000
   19.4058    8.4872   32.3854 O   0  0  0  0  0  0  0  0  0  0  0  0
   20.2663    8.7044   31.5522 C   0  0  0  0  0  0  0  0  0  0  0  0
   20.0856    8.5641   30.1900 N   0  0  0  0  0  0  0  0  0  0  0  0
   20.9375    8.7163   29.3673 C   0  0  0  0  0  0  0  0  0  0  0  0
   18.6794    8.6381   29.6976 C   0  0  0  0  0  0  0  0  0  0  0  0
   21.5302    9.2567   31.9686 N   0  0  0  0  0  0  0  0  0  0  0  0
   18.5377    8.1460   28.3857 C   0  0  0  0  0  0  0  0  0  0  0  0
   19.6791    8.2732   27.6464 C   0  0  0  0  0  0  0  0  0  0  0  0
   21.7829    9.4367   33.3389 C   0  0  0  0  0  0  0  0  0  0  0  0
   22.5323    8.2703   34.0330 C   0  0  0  0  0  0  0  0  0  0  0  0
   20.8693    8.1056   28.1161 C   0  0  0  0  0  0  0  0  0  0  0  0
   22.9835   10.4882   33.3100 C   0  0  0  0  0  0  0  0  0  0  0  0
   17.3248    8.2286   27.7560 C   0  0  0  0  0  0  0  0  0  0  0  0
   22.1650    9.3022   29.6039 C   0  0  0  0  0  0  0  0  0  0  0  0
   24.1905   10.0226   33.8583 N   0  0  0  0  0  0  0  0  0  0  0  0
   21.9501    8.0032   27.2544 C   0  0  0  0  0  0  0  0  0  0  0  0
   24.8433   10.8330   34.8368 C   0  0  0  0  0  0  0  0  0  0  0  0
   19.5182    7.5773   26.3080 C   0  0  0  0  0  0  0  0  0  0  0  0
   23.8399    8.6134   34.3259 C   0  0  0  0  0  0  0  0  0  0  0  0
   18.2324    7.2695   25.7885 C   0  0  0  0  0  0  0  0  0  0  0  0
   26.2410   10.9745   34.6451 N   0  0  0  0  0  0  0  0  0  0  0  0
   20.6320    7.3058   25.5573 C   0  0  0  0  0  0  0  0  0  0  0  0
   22.2848    9.8622   30.9799 C   0  0  0  0  0  0  0  0  0  0  0  0
   27.0769   11.7690   35.2861 C   0  0  0  0  0  0  0  0  0  0  0  0
   18.0744    6.7069   24.6789 O   0  0  0  0  0  0  0  0  0  0  0  0
   28.4477   11.5497   35.2658 C   0  0  0  0  0  0  0  0  0  0  0  0
   23.3246    8.2696   27.7204 O   0  0  0  0  0  0  0  0  0  0  0  0
   29.3777   12.3530   35.7706 C   0  0  0  0  0  0  0  0  0  0  0  0
   30.7487   11.9037   35.7745 C   0  0  0  0  0  0  0  0  0  0  0  0
   21.9370    7.6133   26.1523 C   0  0  0  0  0  0  0  0  0  0  0  0
   17.1511    7.7536   26.4702 N   0  0  0  0  0  0  0  0  0  0  0  0
   28.9846   13.4958   36.3456 C   0  0  0  0  0  0  0  0  0  0  0  0
   24.0972    8.5438   35.8587 N   0  0  0  0  0  0  0  0  0  0  0  0
   27.5859   13.8283   36.4314 C   0  0  0  0  0  0  0  0  0  0  0  0
   28.8298   10.1789   34.7958 N   0  0  0  0  0  0  0  0  0  0  0  0
   28.0550    9.0608   34.8129 C   0  0  0  0  0  0  0  0  0  0  0  0
   26.5925    9.5964   34.5836 C   0  0  0  0  0  0  0  0  0  0  0  0
   26.6751   13.0475   35.8284 C   0  0  0  0  0  0  0  0  0  0  0  0
   30.0159   14.3392   36.9479 C   0  0  0  0  0  0  0  0  0  0  0  0
   28.5263    7.8953   34.8558 O   0  0  0  0  0  0  0  0  0  0  0  0
   25.3982   13.4244   35.7526 O   0  0  0  0  0  0  0  0  0  0  0  0
  1  2  2  0
  2  3  1  0
  3  4  1  0
  3  5  1  0
  2  6  1  0
  5  7  1  0
  7  8  1  0
  6  9  1  0
  9 10  1  0
  4 11  1  0
  8 11  1  0
  9 12  1  0
  7 13  1  0
  4 14  2  0
 12 15  1  0
 11 16  2  0
 15 17  1  0
  8 18  1  0
 10 19  1  0
 15 19  1  0
 18 20  1  0
 17 21  1  0
 18 22  2  0
  6 23  1  0
 14 23  1  0
 21 24  1  0
 20 25  2  0
 24 26  1  0
 16 27  1  0
 26 28  1  0
 28 29  1  0
 16 30  1  0
 22 30  1  0
 13 31  2  0
 20 31  1  0
 28 32  2  0
 19 33  1  0
 32 34  1  0
 26 35  2  0
 35 36  1  0
 21 37  1  0
 36 37  2  0
 24 38  1  0
 34 38  1  0
 32 39  1  0
 36 40  1  0
 38 41  2  0
M  END
>  <ID>  (1) 
conformer_0

$$$$
