
     RDKit          3D

 18 21  0  0  0  0  0  0  0  0999 V2000
   22.6222    7.8483   26.0222 C   0  0  0  0  0  0  0  0  0  0  0  0
   21.8355    8.1154   27.1471 C   0  0  0  0  0  0  0  0  0  0  0  0
   20.5264    7.7341   27.2042 C   0  0  0  0  0  0  0  0  0  0  0  0
   19.8767    7.2216   26.1148 C   0  0  0  0  0  0  0  0  0  0  0  0
   19.7554    8.0075   28.4286 C   0  0  0  0  0  0  0  0  0  0  0  0
   22.5093    8.7738   28.3213 C   0  0  0  0  0  0  0  0  0  0  0  0
   20.7169    6.9979   24.9338 C   0  0  0  0  0  0  0  0  0  0  0  0
   18.3628    6.8165   26.0727 C   0  0  0  0  0  0  0  0  0  0  0  0
   17.7731    6.7966   24.9196 C   0  0  0  0  0  0  0  0  0  0  0  0
   20.0414    6.3591   23.7608 C   0  0  0  0  0  0  0  0  0  0  0  0
   18.4259    7.6390   28.7176 C   0  0  0  0  0  0  0  0  0  0  0  0
   17.8896    7.5043   29.5724 O   0  0  0  0  0  0  0  0  0  0  0  0
   18.6041    6.2111   23.7757 C   0  0  0  0  0  0  0  0  0  0  0  0
   22.0687    7.3610   24.9135 N   0  0  0  0  0  0  0  0  0  0  0  0
   21.7119    9.0342   29.3766 N   0  0  0  0  0  0  0  0  0  0  0  0
   17.5919    7.4047   27.5203 N   0  0  0  0  0  0  0  0  0  0  0  0
   20.4340    8.6933   29.6138 C   0  0  0  0  0  0  0  0  0  0  0  0
   16.3054    7.7066   27.2334 C   0  0  0  0  0  0  0  0  0  0  0  0
  1  2  1  0
  2  3  2  0
  3  4  1  0
  3  5  1  0
  2  6  1  0
  4  7  2  0
  4  8  1  0
  8  9  2  0
  7 10  1  0
  5 11  1  0
 11 12  2  0
  9 13  1  0
 10 13  2  0
  1 14  2  0
  7 14  1  0
  6 15  2  0
  8 16  1  0
 11 16  1  0
  5 17  2  0
 15 17  1  0
 16 18  1  0
M  END
>  <ID>  (1) 
conformer_0

$$$$
