
     RDKit          3D

 39 45  0  0  0  0  0  0  0  0999 V2000
   22.3866    9.7850   31.2957 C   0  0  0  0  0  0  0  0  0  0  0  0
   22.6903    9.5705   32.4623 C   0  0  0  0  0  0  0  0  0  0  0  0
   21.9892    8.6887   33.3683 C   0  0  0  0  0  0  0  0  0  0  0  0
   21.3656    9.0068   30.6274 C   0  0  0  0  0  0  0  0  0  0  0  0
   23.7326   10.2715   33.2357 C   0  0  0  0  0  0  0  0  0  0  0  0
   24.1902    9.6652   34.2601 N   0  0  0  0  0  0  0  0  0  0  0  0
   20.8494    8.0093   32.8080 N   0  0  0  0  0  0  0  0  0  0  0  0
   20.5830    8.2511   31.5182 C   0  0  0  0  0  0  0  0  0  0  0  0
   19.3434    7.8640   30.9043 C   0  0  0  0  0  0  0  0  0  0  0  0
   25.3039   10.3109   34.9450 C   0  0  0  0  0  0  0  0  0  0  0  0
   21.4015    8.9027   29.2338 C   0  0  0  0  0  0  0  0  0  0  0  0
   22.2779    9.4246   28.4107 N   0  0  0  0  0  0  0  0  0  0  0  0
   18.4519    7.2137   31.7170 O   0  0  0  0  0  0  0  0  0  0  0  0
   20.2308    8.2481   28.6629 C   0  0  0  0  0  0  0  0  0  0  0  0
   25.3592   11.5221   35.3030 N   0  0  0  0  0  0  0  0  0  0  0  0
   22.1479    9.0557   27.1171 C   0  0  0  0  0  0  0  0  0  0  0  0
   26.5026    9.4753   34.9304 C   0  0  0  0  0  0  0  0  0  0  0  0
   22.3127    8.4267   34.7393 C   0  0  0  0  0  0  0  0  0  0  0  0
   26.7128   11.7671   35.7273 C   0  0  0  0  0  0  0  0  0  0  0  0
   19.2049    7.5782   29.4906 C   0  0  0  0  0  0  0  0  0  0  0  0
   27.5380   10.3595   35.3791 C   0  0  0  0  0  0  0  0  0  0  0  0
   28.9252   10.3345   35.2568 C   0  0  0  0  0  0  0  0  0  0  0  0
   29.4479    9.1153   34.9206 C   0  0  0  0  0  0  0  0  0  0  0  0
   29.0253    7.9830   35.1903 O   0  0  0  0  0  0  0  0  0  0  0  0
   29.6179   11.4688   35.4546 C   0  0  0  0  0  0  0  0  0  0  0  0
   23.4429    8.9825   35.2979 C   0  0  0  0  0  0  0  0  0  0  0  0
   27.1155   12.7452   36.3267 C   0  0  0  0  0  0  0  0  0  0  0  0
   23.7696    8.8889   36.4153 O   0  0  0  0  0  0  0  0  0  0  0  0
   29.2945   12.7293   36.1208 C   0  0  0  0  0  0  0  0  0  0  0  0
   30.7118    9.0691   34.5679 O   0  0  0  0  0  0  0  0  0  0  0  0
   28.3446   13.3150   36.4469 C   0  0  0  0  0  0  0  0  0  0  0  0
   26.0467   13.6813   36.7173 N   0  0  0  0  0  0  0  0  0  0  0  0
   30.7056   13.2231   36.2454 O   0  0  0  0  0  0  0  0  0  0  0  0
   28.4794   14.5725   37.1527 C   0  0  0  0  0  0  0  0  0  0  0  0
   29.7832   15.1358   37.4348 O   0  0  0  0  0  0  0  0  0  0  0  0
   27.5805   15.3441   37.6351 C   0  0  0  0  0  0  0  0  0  0  0  0
   26.2124   14.8517   37.3295 C   0  0  0  0  0  0  0  0  0  0  0  0
   21.0188    8.3944   26.6537 C   0  0  0  0  0  0  0  0  0  0  0  0
   20.1531    7.9675   27.4062 C   0  0  0  0  0  0  0  0  0  0  0  0
  1  2  2  0
  2  3  1  0
  1  4  1  0
  2  5  1  0
  5  6  1  0
  3  7  2  0
  4  8  2  0
  7  8  1  0
  8  9  1  0
  6 10  1  0
  4 11  1  0
 11 12  2  0
  9 13  1  0
 11 14  1  0
 10 15  2  0
 12 16  1  0
 10 17  1  0
  3 18  1  0
 15 19  1  0
  9 20  2  0
 14 20  1  0
 17 21  1  0
 19 21  2  0
 21 22  1  0
 22 23  1  0
 23 24  1  0
 22 25  2  0
  6 26  1  0
 18 26  1  0
 19 27  1  0
 26 28  2  0
 25 29  1  0
 23 30  2  0
 27 31  1  0
 29 31  1  0
 27 32  2  0
 29 33  2  0
 31 34  2  0
 34 35  1  0
 34 36  1  0
 32 37  1  0
 36 37  2  0
 16 38  2  0
 14 39  2  0
 38 39  1  0
M  END
>  <ID>  (1) 
conformer_0

$$$$
