
     RDKit          3D

 14 15  0  0  0  0  0  0  0  0999 V2000
   22.6990    8.1709   26.6929 C   0  0  0  0  0  0  0  0  0  0  0  0
   21.6363    8.1929   27.4219 C   0  0  0  0  0  0  0  0  0  0  0  0
   20.4926    7.6355   26.9318 C   0  0  0  0  0  0  0  0  0  0  0  0
   21.4638    8.8684   28.7153 C   0  0  0  0  0  0  0  0  0  0  0  0
   19.2732    7.7152   27.4840 C   0  0  0  0  0  0  0  0  0  0  0  0
   22.6130    9.3594   29.3284 N   0  0  0  0  0  0  0  0  0  0  0  0
   19.1658    8.2167   28.7815 C   0  0  0  0  0  0  0  0  0  0  0  0
   22.3952    9.7560   30.6187 C   0  0  0  0  0  0  0  0  0  0  0  0
   20.3016    8.7997   29.3921 C   0  0  0  0  0  0  0  0  0  0  0  0
   17.7913    8.2655   29.3452 C   0  0  0  0  0  0  0  0  0  0  0  0
   16.8064    8.0441   28.5209 O   0  0  0  0  0  0  0  0  0  0  0  0
   17.7597    7.5232   30.5532 C   0  0  0  0  0  0  0  0  0  0  0  0
   21.2553    9.6989   31.2915 N   0  0  0  0  0  0  0  0  0  0  0  0
   20.2601    9.2763   30.8083 C   0  0  0  0  0  0  0  0  0  0  0  0
  1  2  1  0
  2  3  2  0
  2  4  1  0
  3  5  1  0
  4  6  1  0
  5  7  2  0
  6  8  2  0
  4  9  2  0
  7  9  1  0
  7 10  1  0
 10 11  1  0
 10 12  1  0
  8 13  1  0
  9 14  1  0
 13 14  2  0
M  END
>  <ID>  (1) 
conformer_0

$$$$
