
     RDKit          3D

 38 43  0  0  0  0  0  0  0  0999 V2000
   22.0927    8.2392   27.5194 C   0  0  0  0  0  0  0  0  0  0  0  0
   21.7747    8.8355   28.4692 C   0  0  0  0  0  0  0  0  0  0  0  0
   22.5919    9.3241   29.5436 C   0  0  0  0  0  0  0  0  0  0  0  0
   20.3169    8.9758   28.6181 C   0  0  0  0  0  0  0  0  0  0  0  0
   23.5388    8.0671   27.0554 O   0  0  0  0  0  0  0  0  0  0  0  0
   22.3110    8.9665   30.8575 C   0  0  0  0  0  0  0  0  0  0  0  0
   21.2135    7.7025   26.5144 C   0  0  0  0  0  0  0  0  0  0  0  0
   23.0000    9.5448   31.9833 C   0  0  0  0  0  0  0  0  0  0  0  0
   22.9381    8.9265   33.3025 C   0  0  0  0  0  0  0  0  0  0  0  0
   19.7999    9.6796   29.8596 C   0  0  0  0  0  0  0  0  0  0  0  0
   24.0083    9.2105   34.1308 C   0  0  0  0  0  0  0  0  0  0  0  0
   21.8261    8.2509   33.6813 C   0  0  0  0  0  0  0  0  0  0  0  0
   21.7715    7.1214   25.3000 C   0  0  0  0  0  0  0  0  0  0  0  0
   19.9422    7.8639   26.8013 C   0  0  0  0  0  0  0  0  0  0  0  0
   21.8235    8.0305   34.9492 F   0  0  0  0  0  0  0  0  0  0  0  0
   20.7083    8.1332   32.9573 F   0  0  0  0  0  0  0  0  0  0  0  0
   25.2299    9.1748   33.7167 C   0  0  0  0  0  0  0  0  0  0  0  0
   26.3074    9.5819   34.6107 C   0  0  0  0  0  0  0  0  0  0  0  0
   27.7309    9.5441   34.3182 C   0  0  0  0  0  0  0  0  0  0  0  0
   18.9091    7.2804   25.7611 C   0  0  0  0  0  0  0  0  0  0  0  0
   23.7968    9.6536   35.4222 C   0  0  0  0  0  0  0  0  0  0  0  0
   28.3803    8.3529   34.2912 N   0  0  0  0  0  0  0  0  0  0  0  0
   28.4747   10.7204   34.7845 C   0  0  0  0  0  0  0  0  0  0  0  0
   18.5167    9.9690   30.0411 C   0  0  0  0  0  0  0  0  0  0  0  0
   17.5846    8.9228   29.9525 C   0  0  0  0  0  0  0  0  0  0  0  0
   29.8259   10.6476   34.8955 C   0  0  0  0  0  0  0  0  0  0  0  0
   30.5064   11.8573   35.2847 O   0  0  0  0  0  0  0  0  0  0  0  0
   30.6685   12.2431   36.5711 C   0  0  0  0  0  0  0  0  0  0  0  0
   19.4218    6.5622   24.7121 C   0  0  0  0  0  0  0  0  0  0  0  0
   30.3047    9.3385   34.6617 N   0  0  0  0  0  0  0  0  0  0  0  0
   27.7684   12.0114   34.8580 C   0  0  0  0  0  0  0  0  0  0  0  0
   19.4264    8.4983   27.8711 C   0  0  0  0  0  0  0  0  0  0  0  0
   25.9062   10.4355   35.7916 C   0  0  0  0  0  0  0  0  0  0  0  0
   20.7977    6.5871   24.4222 C   0  0  0  0  0  0  0  0  0  0  0  0
   24.5687   10.3268   36.0718 C   0  0  0  0  0  0  0  0  0  0  0  0
   29.6610    8.3310   34.4134 C   0  0  0  0  0  0  0  0  0  0  0  0
   20.7894    9.4423   31.0294 C   0  0  0  0  0  0  0  0  0  0  0  0
   26.6225   11.7300   35.9115 N   0  0  0  0  0  0  0  0  0  0  0  0
  1  2  2  0
  2  3  1  0
  2  4  1  0
  1  5  1  0
  3  6  1  0
  1  7  1  0
  6  8  1  0
  8  9  1  0
  4 10  1  0
  9 11  1  0
  9 12  2  3
  7 13  1  0
  7 14  2  0
 12 15  1  0
 12 16  1  0
 11 17  1  0
 17 18  2  0
 18 19  1  0
 14 20  1  0
 11 21  2  0
 19 22  2  0
 19 23  1  0
 10 24  1  0
 24 25  1  0
 23 26  2  0
 26 27  1  0
 27 28  1  0
 20 29  2  0
 26 30  1  0
 23 31  1  0
  4 32  2  0
 14 32  1  0
 18 33  1  0
 13 34  2  0
 29 34  1  0
 21 35  1  0
 33 35  2  0
 22 36  1  0
 30 36  2  0
  6 37  1  0
 10 37  2  0
 31 38  1  0
 33 38  1  0
M  END
>  <ID>  (1) 
conformer_0

$$$$
