
     RDKit          3D

 34 38  0  0  0  0  0  0  0  0999 V2000
   22.0927    8.2392   27.5194 C   0  0  0  0  0  0  0  0  0  0  0  0
   21.7747    8.8355   28.4692 C   0  0  0  0  0  0  0  0  0  0  0  0
   22.5919    9.3241   29.5436 C   0  0  0  0  0  0  0  0  0  0  0  0
   20.3169    8.9758   28.6181 C   0  0  0  0  0  0  0  0  0  0  0  0
   23.5388    8.0671   27.0554 O   0  0  0  0  0  0  0  0  0  0  0  0
   22.3110    8.9665   30.8575 C   0  0  0  0  0  0  0  0  0  0  0  0
   21.2135    7.7025   26.5144 C   0  0  0  0  0  0  0  0  0  0  0  0
   23.0000    9.5448   31.9833 C   0  0  0  0  0  0  0  0  0  0  0  0
   22.9381    8.9265   33.3025 C   0  0  0  0  0  0  0  0  0  0  0  0
   19.7999    9.6796   29.8596 C   0  0  0  0  0  0  0  0  0  0  0  0
   24.0083    9.2105   34.1308 C   0  0  0  0  0  0  0  0  0  0  0  0
   21.8261    8.2509   33.6813 C   0  0  0  0  0  0  0  0  0  0  0  0
   21.7715    7.1214   25.3000 C   0  0  0  0  0  0  0  0  0  0  0  0
   19.9422    7.8639   26.8013 C   0  0  0  0  0  0  0  0  0  0  0  0
   21.8235    8.0305   34.9492 F   0  0  0  0  0  0  0  0  0  0  0  0
   20.7083    8.1332   32.9573 F   0  0  0  0  0  0  0  0  0  0  0  0
   25.2299    9.1748   33.7167 C   0  0  0  0  0  0  0  0  0  0  0  0
   26.3074    9.5819   34.6107 C   0  0  0  0  0  0  0  0  0  0  0  0
   27.7309    9.5441   34.3182 C   0  0  0  0  0  0  0  0  0  0  0  0
   18.9091    7.2804   25.7611 C   0  0  0  0  0  0  0  0  0  0  0  0
   23.7968    9.6536   35.4222 C   0  0  0  0  0  0  0  0  0  0  0  0
   19.3646    6.2964   24.8704 C   0  0  0  0  0  0  0  0  0  0  0  0
   19.4128    8.5216   27.8566 C   0  0  0  0  0  0  0  0  0  0  0  0
   18.6572   10.1265   30.1300 N   0  0  0  0  0  0  0  0  0  0  0  0
   18.4535   10.6647   31.3426 O   0  0  0  0  0  0  0  0  0  0  0  0
   20.8223    6.4675   24.5063 C   0  0  0  0  0  0  0  0  0  0  0  0
   28.5182   10.6259   34.7661 C   0  0  0  0  0  0  0  0  0  0  0  0
   25.9416   10.1080   35.8856 C   0  0  0  0  0  0  0  0  0  0  0  0
   29.9191   10.4615   34.7909 C   0  0  0  0  0  0  0  0  0  0  0  0
   30.3864    9.4736   34.5488 N   0  0  0  0  0  0  0  0  0  0  0  0
   24.6992   10.1260   36.2714 C   0  0  0  0  0  0  0  0  0  0  0  0
   20.8500    9.6091   31.1066 C   0  0  0  0  0  0  0  0  0  0  0  0
   28.3683    8.3702   34.1050 C   0  0  0  0  0  0  0  0  0  0  0  0
   29.8000    8.3971   34.2092 C   0  0  0  0  0  0  0  0  0  0  0  0
  1  2  2  0
  2  3  1  0
  2  4  1  0
  1  5  1  0
  3  6  1  0
  1  7  1  0
  6  8  1  0
  8  9  1  0
  4 10  1  0
  9 11  1  0
  9 12  2  3
  7 13  1  0
  7 14  2  0
 12 15  1  0
 12 16  1  0
 11 17  1  0
 17 18  2  0
 18 19  1  0
 14 20  1  0
 11 21  2  0
 20 22  2  0
  4 23  2  0
 14 23  1  0
 10 24  2  3
 24 25  1  0
 13 26  2  0
 22 26  1  0
 19 27  1  0
 18 28  1  0
 27 29  1  0
 29 30  2  0
 21 31  1  0
 28 31  2  0
  6 32  1  0
 10 32  1  0
 19 33  2  0
 30 34  1  0
 33 34  1  0
M  END
>  <ID>  (1) 
conformer_0

$$$$
