
     RDKit          3D

 17 19  0  0  0  0  0  0  0  0999 V2000
   29.7978    9.5468   34.7871 C   0  0  0  0  0  0  0  0  0  0  0  0
   28.5863    9.1865   34.7257 C   0  0  0  0  0  0  0  0  0  0  0  0
   27.6365   10.2992   34.9198 C   0  0  0  0  0  0  0  0  0  0  0  0
   28.0428   11.5094   35.3272 C   0  0  0  0  0  0  0  0  0  0  0  0
   30.8327    8.5671   34.6016 O   0  0  0  0  0  0  0  0  0  0  0  0
   26.9822   12.4389   35.6015 C   0  0  0  0  0  0  0  0  0  0  0  0
   30.2313   10.8457   35.3036 C   0  0  0  0  0  0  0  0  0  0  0  0
   27.1207   13.6093   36.0500 O   0  0  0  0  0  0  0  0  0  0  0  0
   26.1790    9.9397   34.7488 C   0  0  0  0  0  0  0  0  0  0  0  0
   25.6819    8.8199   34.2517 N   0  0  0  0  0  0  0  0  0  0  0  0
   24.2671    8.6962   34.2311 C   0  0  0  0  0  0  0  0  0  0  0  0
   25.5834   12.0987   35.5324 C   0  0  0  0  0  0  0  0  0  0  0  0
   28.0738   13.9426   37.0520 C   0  0  0  0  0  0  0  0  0  0  0  0
   29.3112   11.8598   35.3623 C   0  0  0  0  0  0  0  0  0  0  0  0
   23.6106    7.7495   33.6145 O   0  0  0  0  0  0  0  0  0  0  0  0
   25.2457   10.8309   35.0477 C   0  0  0  0  0  0  0  0  0  0  0  0
   23.8269   10.3954   34.8744 S   0  0  0  0  0  0  0  0  0  0  0  0
  1  2  2  0
  2  3  1  0
  3  4  2  0
  1  5  1  0
  4  6  1  0
  1  7  1  0
  6  8  1  0
  3  9  1  0
  9 10  1  0
 10 11  1  0
  6 12  2  0
  8 13  1  0
  4 14  1  0
  7 14  2  0
 11 15  2  0
  9 16  2  0
 12 16  1  0
 11 17  1  0
 16 17  1  0
M  END
>  <ID>  (1) 
conformer_0

$$$$
