
     RDKit          3D

 16 18  0  0  0  0  0  0  0  0999 V2000
   22.0927    8.2392   27.5194 C   0  0  0  0  0  0  0  0  0  0  0  0
   20.9246    7.9197   27.2559 C   0  0  0  0  0  0  0  0  0  0  0  0
   20.4414    7.3736   26.1350 C   0  0  0  0  0  0  0  0  0  0  0  0
   21.2942    7.1850   25.1003 C   0  0  0  0  0  0  0  0  0  0  0  0
   19.0253    7.0466   25.9236 C   0  0  0  0  0  0  0  0  0  0  0  0
   22.5924    8.8064   28.7785 C   0  0  0  0  0  0  0  0  0  0  0  0
   18.5020    6.2323   25.2707 O   0  0  0  0  0  0  0  0  0  0  0  0
   21.5726    9.3899   29.5638 C   0  0  0  0  0  0  0  0  0  0  0  0
   18.1066    7.6117   26.7815 N   0  0  0  0  0  0  0  0  0  0  0  0
   18.3853    8.5814   27.7897 C   0  0  0  0  0  0  0  0  0  0  0  0
   19.8299    8.3734   28.3268 C   0  0  0  0  0  0  0  0  0  0  0  0
   22.6224    7.4535   25.3191 C   0  0  0  0  0  0  0  0  0  0  0  0
   23.0780    8.0407   26.5245 C   0  0  0  0  0  0  0  0  0  0  0  0
   20.4955    9.4096   29.2698 N   0  0  0  0  0  0  0  0  0  0  0  0
   16.7328    7.1556   26.7461 C   0  0  0  0  0  0  0  0  0  0  0  0
   22.1993    9.8904   30.6547 O   0  0  0  0  0  0  0  0  0  0  0  0
  1  2  1  0
  2  3  2  0
  3  4  1  0
  3  5  1  0
  1  6  1  0
  5  7  2  0
  6  8  1  0
  5  9  1  0
  9 10  1  0
  2 11  1  0
 10 11  1  0
  4 12  2  0
  1 13  2  0
 12 13  1  0
  8 14  1  0
 11 14  1  0
  9 15  1  0
  8 16  2  0
M  END
>  <ID>  (1) 
conformer_0

$$$$
