
     RDKit          3D

 41 47  0  0  0  0  0  0  0  0999 V2000
   19.4058    8.4872   32.3854 O   0  0  0  0  0  0  0  0  0  0  0  0
   20.2663    8.7044   31.5522 C   0  0  0  0  0  0  0  0  0  0  0  0
   20.0856    8.5641   30.1900 N   0  0  0  0  0  0  0  0  0  0  0  0
   20.9375    8.7163   29.3673 C   0  0  0  0  0  0  0  0  0  0  0  0
   18.6794    8.6381   29.6976 C   0  0  0  0  0  0  0  0  0  0  0  0
   21.5302    9.2567   31.9686 N   0  0  0  0  0  0  0  0  0  0  0  0
   18.5377    8.1460   28.3857 C   0  0  0  0  0  0  0  0  0  0  0  0
   19.6791    8.2732   27.6464 C   0  0  0  0  0  0  0  0  0  0  0  0
   21.7829    9.4367   33.3389 C   0  0  0  0  0  0  0  0  0  0  0  0
   22.5323    8.2703   34.0330 C   0  0  0  0  0  0  0  0  0  0  0  0
   20.8693    8.1056   28.1161 C   0  0  0  0  0  0  0  0  0  0  0  0
   22.9835   10.4882   33.3100 C   0  0  0  0  0  0  0  0  0  0  0  0
   17.3248    8.2286   27.7560 C   0  0  0  0  0  0  0  0  0  0  0  0
   22.1650    9.3022   29.6039 C   0  0  0  0  0  0  0  0  0  0  0  0
   24.1905   10.0226   33.8583 N   0  0  0  0  0  0  0  0  0  0  0  0
   21.9501    8.0032   27.2544 C   0  0  0  0  0  0  0  0  0  0  0  0
   24.8433   10.8330   34.8368 C   0  0  0  0  0  0  0  0  0  0  0  0
   19.5182    7.5773   26.3080 C   0  0  0  0  0  0  0  0  0  0  0  0
   23.8399    8.6134   34.3259 C   0  0  0  0  0  0  0  0  0  0  0  0
   18.2324    7.2695   25.7885 C   0  0  0  0  0  0  0  0  0  0  0  0
   26.2410   10.9745   34.6451 N   0  0  0  0  0  0  0  0  0  0  0  0
   20.6320    7.3058   25.5573 C   0  0  0  0  0  0  0  0  0  0  0  0
   22.2848    9.8622   30.9799 C   0  0  0  0  0  0  0  0  0  0  0  0
   27.0769   11.7690   35.2861 C   0  0  0  0  0  0  0  0  0  0  0  0
   18.0744    6.7069   24.6789 O   0  0  0  0  0  0  0  0  0  0  0  0
   28.4477   11.5497   35.2658 C   0  0  0  0  0  0  0  0  0  0  0  0
   28.9367   10.2567   34.9246 C   0  0  0  0  0  0  0  0  0  0  0  0
   24.8263    7.7397   33.7557 O   0  0  0  0  0  0  0  0  0  0  0  0
   17.1592    7.6909   26.5159 N   0  0  0  0  0  0  0  0  0  0  0  0
   15.9095    7.7878   25.7997 C   0  0  0  0  0  0  0  0  0  0  0  0
   15.4273    9.0343   25.6487 C   0  0  0  0  0  0  0  0  0  0  0  0
   14.1323    9.2026   25.5884 C   0  0  0  0  0  0  0  0  0  0  0  0
   26.8632    9.5591   34.3105 C   0  0  0  0  0  0  0  0  0  0  0  0
   28.1415    9.2540   34.5012 C   0  0  0  0  0  0  0  0  0  0  0  0
   24.3361   11.5735   35.6864 O   0  0  0  0  0  0  0  0  0  0  0  0
   30.3382    9.9831   35.0101 N   0  0  0  0  0  0  0  0  0  0  0  0
   13.2667    8.1948   25.5137 C   0  0  0  0  0  0  0  0  0  0  0  0
   21.8574    7.5683   26.0242 C   0  0  0  0  0  0  0  0  0  0  0  0
   13.6341    6.9341   25.7392 C   0  0  0  0  0  0  0  0  0  0  0  0
   30.6982    8.6128   34.5310 C   0  0  0  0  0  0  0  0  0  0  0  0
   14.9803    6.6988   25.9803 C   0  0  0  0  0  0  0  0  0  0  0  0
  1  2  2  0
  2  3  1  0
  3  4  1  0
  3  5  1  0
  2  6  1  0
  5  7  1  0
  7  8  1  0
  6  9  1  0
  9 10  1  0
  4 11  1  0
  8 11  1  0
  9 12  1  0
  7 13  1  0
  4 14  2  0
 12 15  1  0
 11 16  2  0
 15 17  1  0
  8 18  1  0
 10 19  1  0
 15 19  1  0
 18 20  1  0
 17 21  1  0
 18 22  2  0
  6 23  1  0
 14 23  1  0
 21 24  1  0
 20 25  2  0
 24 26  1  0
 26 27  2  0
 19 28  1  0
 13 29  1  0
 20 29  1  0
 29 30  1  0
 30 31  1  0
 31 32  2  0
 21 33  1  0
 27 34  1  0
 33 34  2  0
 17 35  2  0
 27 36  1  0
 32 37  1  0
 16 38  1  0
 22 38  1  0
 37 39  2  0
 36 40  1  0
 30 41  2  0
 39 41  1  0
M  END
>  <ID>  (1) 
conformer_0

$$$$
