
     RDKit          3D

 21 23  0  0  0  0  0  0  0  0999 V2000
   22.6222    7.8483   26.0222 C   0  0  0  0  0  0  0  0  0  0  0  0
   21.8355    8.1154   27.1471 C   0  0  0  0  0  0  0  0  0  0  0  0
   20.5264    7.7341   27.2042 C   0  0  0  0  0  0  0  0  0  0  0  0
   19.8767    7.2216   26.1148 C   0  0  0  0  0  0  0  0  0  0  0  0
   19.7554    8.0075   28.4286 C   0  0  0  0  0  0  0  0  0  0  0  0
   22.5093    8.7738   28.3213 C   0  0  0  0  0  0  0  0  0  0  0  0
   20.7169    6.9979   24.9338 C   0  0  0  0  0  0  0  0  0  0  0  0
   21.7456    8.9200   29.4779 C   0  0  0  0  0  0  0  0  0  0  0  0
   20.4464    8.5303   29.5148 C   0  0  0  0  0  0  0  0  0  0  0  0
   18.3721    6.9764   26.0073 C   0  0  0  0  0  0  0  0  0  0  0  0
   17.6259    7.7899   26.0044 C   0  0  0  0  0  0  0  0  0  0  0  0
   19.7201    8.7542   30.7686 C   0  0  0  0  0  0  0  0  0  0  0  0
   23.9159    8.2459   25.9563 O   0  0  0  0  0  0  0  0  0  0  0  0
   22.2902    9.5253   30.6502 C   0  0  0  0  0  0  0  0  0  0  0  0
   16.1765    7.3029   25.9163 C   0  0  0  0  0  0  0  0  0  0  0  0
   15.2269    7.7332   26.5547 O   0  0  0  0  0  0  0  0  0  0  0  0
   22.0613    7.3677   24.9431 N   0  0  0  0  0  0  0  0  0  0  0  0
   21.7702    9.7342   31.7421 N   0  0  0  0  0  0  0  0  0  0  0  0
   20.4110    9.3230   31.8425 C   0  0  0  0  0  0  0  0  0  0  0  0
   19.6430    9.5633   33.2467 C   0  0  0  0  0  0  0  0  0  0  0  0
   15.9302    6.2890   25.1141 O   0  0  0  0  0  0  0  0  0  0  0  0
  1  2  1  0
  2  3  2  0
  3  4  1  0
  3  5  1  0
  2  6  1  0
  4  7  2  0
  6  8  2  0
  5  9  2  0
  8  9  1  0
  4 10  1  0
 10 11  2  3
  9 12  1  0
  1 13  1  0
  8 14  1  0
 11 15  1  0
 15 16  2  0
  1 17  2  0
  7 17  1  0
 14 18  2  0
 12 19  2  0
 18 19  1  0
 19 20  1  0
 15 21  1  0
M  END
>  <ID>  (1) 
conformer_0

$$$$
