
     RDKit          3D

 43 51  0  0  0  0  0  0  0  0999 V2000
   22.6990    8.1709   26.6929 C   0  0  0  0  0  0  0  0  0  0  0  0
   22.0762    7.7406   25.8352 C   0  0  0  0  0  0  0  0  0  0  0  0
   22.2451    8.5163   28.0446 C   0  0  0  0  0  0  0  0  0  0  0  0
   22.9308    9.1398   29.0711 N   0  0  0  0  0  0  0  0  0  0  0  0
   20.8455    8.1452   28.1595 C   0  0  0  0  0  0  0  0  0  0  0  0
   22.3334    8.9379   30.2316 C   0  0  0  0  0  0  0  0  0  0  0  0
   20.1611    8.5366   29.3683 C   0  0  0  0  0  0  0  0  0  0  0  0
   18.8130    8.2711   29.6329 C   0  0  0  0  0  0  0  0  0  0  0  0
   21.0272    8.8942   30.5010 C   0  0  0  0  0  0  0  0  0  0  0  0
   23.1990    9.5113   31.3424 C   0  0  0  0  0  0  0  0  0  0  0  0
   18.5200    8.5925   31.1141 C   0  0  0  0  0  0  0  0  0  0  0  0
   20.2026    7.6759   27.0655 C   0  0  0  0  0  0  0  0  0  0  0  0
   22.6199    9.3766   32.6287 C   0  0  0  0  0  0  0  0  0  0  0  0
   20.4134    8.8717   31.7540 C   0  0  0  0  0  0  0  0  0  0  0  0
   22.7440    7.4290   24.6005 O   0  0  0  0  0  0  0  0  0  0  0  0
   18.7626    7.2880   27.1913 O   0  0  0  0  0  0  0  0  0  0  0  0
   23.5401    9.6358   33.8292 C   0  0  0  0  0  0  0  0  0  0  0  0
   24.3145   10.5261   34.0131 N   0  0  0  0  0  0  0  0  0  0  0  0
   19.1287    8.7547   31.9449 N   0  0  0  0  0  0  0  0  0  0  0  0
   20.8170    7.3819   25.8512 C   0  0  0  0  0  0  0  0  0  0  0  0
   25.0885   10.4141   35.1060 C   0  0  0  0  0  0  0  0  0  0  0  0
   26.2300   11.3191   35.3881 N   0  0  0  0  0  0  0  0  0  0  0  0
   24.7167    9.5142   36.1379 N   0  0  0  0  0  0  0  0  0  0  0  0
   26.0800   12.6202   35.6742 C   0  0  0  0  0  0  0  0  0  0  0  0
   23.6657    8.7481   35.9069 N   0  0  0  0  0  0  0  0  0  0  0  0
   27.5314   10.7477   35.2781 C   0  0  0  0  0  0  0  0  0  0  0  0
   24.9772   13.3083   35.8184 C   0  0  0  0  0  0  0  0  0  0  0  0
   23.0376    8.7710   34.7943 C   0  0  0  0  0  0  0  0  0  0  0  0
   27.2726   13.2478   36.0398 C   0  0  0  0  0  0  0  0  0  0  0  0
   28.4298   12.2390   35.7345 C   0  0  0  0  0  0  0  0  0  0  0  0
   27.2705   14.5926   36.3721 C   0  0  0  0  0  0  0  0  0  0  0  0
   29.7505   12.1501   35.7843 C   0  0  0  0  0  0  0  0  0  0  0  0
   28.1479    9.5964   34.8868 C   0  0  0  0  0  0  0  0  0  0  0  0
   27.5001    8.4774   34.5263 C   0  0  0  0  0  0  0  0  0  0  0  0
   28.2752    7.3640   34.2970 C   0  0  0  0  0  0  0  0  0  0  0  0
   21.2559    9.2089   32.9936 C   0  0  0  0  0  0  0  0  0  0  0  0
   29.7246    8.0578   34.7553 N   0  0  0  0  0  0  0  0  0  0  0  0
   24.9530   14.6211   36.1893 C   0  0  0  0  0  0  0  0  0  0  0  0
   26.3018   15.2916   36.4364 C   0  0  0  0  0  0  0  0  0  0  0  0
   30.4015   13.0498   36.2244 O   0  0  0  0  0  0  0  0  0  0  0  0
   29.6112    9.3795   35.0324 C   0  0  0  0  0  0  0  0  0  0  0  0
   30.4816   10.6005   35.4535 N   0  0  0  0  0  0  0  0  0  0  0  0
   18.2678    6.3357   26.2762 C   0  0  0  0  0  0  0  0  0  0  0  0
  1  2  1  0
  1  3  2  0
  3  4  1  0
  3  5  1  0
  4  6  2  0
  5  7  1  0
  7  8  2  0
  6  9  1  0
  7  9  1  0
  6 10  1  0
  8 11  1  0
  5 12  2  0
 10 13  2  0
  9 14  2  0
  2 15  1  0
 12 16  1  0
 13 17  1  0
 17 18  1  0
 11 19  2  0
 14 19  1  0
  2 20  2  0
 12 20  1  0
 18 21  2  0
 21 22  1  0
 21 23  1  0
 22 24  1  0
 23 25  2  0
 22 26  1  0
 24 27  1  0
 17 28  2  0
 25 28  1  0
 24 29  2  0
 26 30  2  0
 29 30  1  0
 29 31  1  0
 30 32  1  0
 26 33  1  0
 33 34  1  0
 34 35  2  0
 13 36  1  0
 14 36  1  0
 35 37  1  0
 27 38  2  0
 31 39  2  0
 38 39  1  0
 32 40  2  0
 33 41  1  0
 37 41  2  0
 32 42  1  0
 41 42  1  0
 16 43  1  0
M  END
>  <ID>  (1) 
conformer_0

$$$$
