
     RDKit          3D

 13 14  0  0  0  0  0  0  0  0999 V2000
   22.4024    8.7599   29.0382 C   0  0  0  0  0  0  0  0  0  0  0  0
   22.3532    8.4057   27.7667 C   0  0  0  0  0  0  0  0  0  0  0  0
   23.3647    8.3797   26.8968 C   0  0  0  0  0  0  0  0  0  0  0  0
   21.2607    8.7458   29.8431 N   0  0  0  0  0  0  0  0  0  0  0  0
   21.0316    8.0212   27.2889 C   0  0  0  0  0  0  0  0  0  0  0  0
   20.8324    7.6962   25.9683 C   0  0  0  0  0  0  0  0  0  0  0  0
   20.0719    8.3556   29.3538 C   0  0  0  0  0  0  0  0  0  0  0  0
   18.8729    8.3978   30.2453 C   0  0  0  0  0  0  0  0  0  0  0  0
   19.8584    8.0595   28.0891 C   0  0  0  0  0  0  0  0  0  0  0  0
   22.0051    7.5563   25.1603 C   0  0  0  0  0  0  0  0  0  0  0  0
   23.2531    7.9722   25.5977 C   0  0  0  0  0  0  0  0  0  0  0  0
   18.8811    8.8493   31.5725 N   0  0  0  0  0  0  0  0  0  0  0  0
   17.8859    7.4104   30.3228 O   0  0  0  0  0  0  0  0  0  0  0  0
  1  2  2  0
  2  3  1  0
  1  4  1  0
  2  5  1  0
  5  6  1  0
  4  7  2  0
  7  8  1  0
  5  9  2  0
  7  9  1  0
  6 10  2  0
  3 11  2  0
 10 11  1  0
  8 12  1  0
  8 13  2  0
M  END
>  <ID>  (1) 
conformer_0

$$$$
