
     RDKit          3D

 25 28  0  0  0  0  0  0  0  0999 V2000
   22.4024    8.7599   29.0382 C   0  0  0  0  0  0  0  0  0  0  0  0
   21.7643    9.1568   29.9780 C   0  0  0  0  0  0  0  0  0  0  0  0
   21.9441    8.3351   27.7487 C   0  0  0  0  0  0  0  0  0  0  0  0
   22.3333    9.5906   31.2631 C   0  0  0  0  0  0  0  0  0  0  0  0
   22.6853    7.9659   26.6274 C   0  0  0  0  0  0  0  0  0  0  0  0
   21.8405    9.1878   32.5183 C   0  0  0  0  0  0  0  0  0  0  0  0
   20.6435    8.8076   32.7028 C   0  0  0  0  0  0  0  0  0  0  0  0
   19.8000    8.3875   31.4346 C   0  0  0  0  0  0  0  0  0  0  0  0
   20.4240    8.6128   30.1823 C   0  0  0  0  0  0  0  0  0  0  0  0
   22.7557    9.4015   33.6677 C   0  0  0  0  0  0  0  0  0  0  0  0
   23.0673   10.6196   34.1004 C   0  0  0  0  0  0  0  0  0  0  0  0
   19.8016    7.9941   29.0953 C   0  0  0  0  0  0  0  0  0  0  0  0
   18.6350    8.0613   31.5595 O   0  0  0  0  0  0  0  0  0  0  0  0
   18.4320    7.6035   28.9642 O   0  0  0  0  0  0  0  0  0  0  0  0
   20.4637    8.0648   27.7667 C   0  0  0  0  0  0  0  0  0  0  0  0
   21.9097    7.5940   25.5460 C   0  0  0  0  0  0  0  0  0  0  0  0
   23.0602    8.2913   34.4479 C   0  0  0  0  0  0  0  0  0  0  0  0
   19.9170    7.5509   26.6370 C   0  0  0  0  0  0  0  0  0  0  0  0
   18.4995    7.2867   26.5058 O   0  0  0  0  0  0  0  0  0  0  0  0
   20.6257    7.4698   25.5938 C   0  0  0  0  0  0  0  0  0  0  0  0
   22.6815    7.0486   34.0790 O   0  0  0  0  0  0  0  0  0  0  0  0
   23.6489    8.2665   35.4582 N   0  0  0  0  0  0  0  0  0  0  0  0
   22.8129   11.7686   33.3544 F   0  0  0  0  0  0  0  0  0  0  0  0
   23.9102   10.7144   35.1870 C   0  0  0  0  0  0  0  0  0  0  0  0
   24.2559    9.5984   35.9082 C   0  0  0  0  0  0  0  0  0  0  0  0
  1  2  2  0
  1  3  1  0
  2  4  1  0
  3  5  2  0
  4  6  1  0
  6  7  2  0
  7  8  1  0
  2  9  1  0
  8  9  1  0
  6 10  1  0
 10 11  2  0
  9 12  2  0
  8 13  2  0
 12 14  1  0
  3 15  1  0
 12 15  1  0
  5 16  1  0
 10 17  1  0
 15 18  2  0
 18 19  1  0
 16 20  2  0
 18 20  1  0
 17 21  1  0
 17 22  2  0
 11 23  1  0
 11 24  1  0
 22 25  1  0
 24 25  2  0
M  END
>  <ID>  (1) 
conformer_0

$$$$
