
     RDKit          3D

 15 17  0  0  0  0  0  0  0  0999 V2000
   22.4024    8.7599   29.0382 C   0  0  0  0  0  0  0  0  0  0  0  0
   22.3532    8.4057   27.7667 C   0  0  0  0  0  0  0  0  0  0  0  0
   23.3341    8.4907   26.8603 C   0  0  0  0  0  0  0  0  0  0  0  0
   21.3390    8.8980   29.8311 N   0  0  0  0  0  0  0  0  0  0  0  0
   20.1846    8.5379   29.3338 C   0  0  0  0  0  0  0  0  0  0  0  0
   23.1074    8.0637   25.5412 C   0  0  0  0  0  0  0  0  0  0  0  0
   20.0893    8.1837   28.1192 C   0  0  0  0  0  0  0  0  0  0  0  0
   18.7892    8.6086   30.1711 C   0  0  0  0  0  0  0  0  0  0  0  0
   17.9591    7.6952   30.1333 N   0  0  0  0  0  0  0  0  0  0  0  0
   21.1907    8.0895   27.1693 C   0  0  0  0  0  0  0  0  0  0  0  0
   18.4708    9.8538   30.8473 N   0  0  0  0  0  0  0  0  0  0  0  0
   22.0139    7.6250   25.1014 C   0  0  0  0  0  0  0  0  0  0  0  0
   16.9772    8.1828   30.9743 N   0  0  0  0  0  0  0  0  0  0  0  0
   20.9212    7.5941   25.9151 C   0  0  0  0  0  0  0  0  0  0  0  0
   17.3265    9.4189   31.3682 N   0  0  0  0  0  0  0  0  0  0  0  0
  1  2  1  0
  2  3  1  0
  1  4  2  0
  4  5  1  0
  3  6  2  0
  5  7  2  0
  5  8  1  0
  8  9  2  0
  2 10  2  0
  7 10  1  0
  8 11  1  0
  6 12  1  0
  9 13  1  0
 10 14  1  0
 12 14  2  0
 11 15  1  0
 13 15  2  0
M  END
>  <ID>  (1) 
conformer_0

$$$$
