
     RDKit          3D

 33 37  0  0  0  0  0  0  0  0999 V2000
   22.3866    9.7850   31.2957 C   0  0  0  0  0  0  0  0  0  0  0  0
   22.6903    9.5705   32.4623 C   0  0  0  0  0  0  0  0  0  0  0  0
   21.9892    8.6887   33.3683 C   0  0  0  0  0  0  0  0  0  0  0  0
   21.3656    9.0068   30.6274 C   0  0  0  0  0  0  0  0  0  0  0  0
   23.7326   10.2715   33.2357 C   0  0  0  0  0  0  0  0  0  0  0  0
   24.1902    9.6652   34.2601 N   0  0  0  0  0  0  0  0  0  0  0  0
   20.8494    8.0093   32.8080 N   0  0  0  0  0  0  0  0  0  0  0  0
   23.3414    8.9312   35.0863 C   0  0  0  0  0  0  0  0  0  0  0  0
   25.3042   10.3283   34.9549 C   0  0  0  0  0  0  0  0  0  0  0  0
   20.5922    8.1659   31.5039 C   0  0  0  0  0  0  0  0  0  0  0  0
   25.3971   11.4759   35.4029 C   0  0  0  0  0  0  0  0  0  0  0  0
   19.4064    7.4573   30.8309 C   0  0  0  0  0  0  0  0  0  0  0  0
   26.5608    9.6321   34.5386 C   0  0  0  0  0  0  0  0  0  0  0  0
   27.7731   10.2069   34.9333 C   0  0  0  0  0  0  0  0  0  0  0  0
   19.3369    7.0675   29.7045 N   0  0  0  0  0  0  0  0  0  0  0  0
   19.3979    7.6934   28.5708 C   0  0  0  0  0  0  0  0  0  0  0  0
   26.5384   12.0078   35.8483 C   0  0  0  0  0  0  0  0  0  0  0  0
   18.3325    7.4514   31.6020 O   0  0  0  0  0  0  0  0  0  0  0  0
   23.7221    8.7618   36.3699 N   0  0  0  0  0  0  0  0  0  0  0  0
   19.4687    7.0492   27.3390 C   0  0  0  0  0  0  0  0  0  0  0  0
   27.7758   11.4567   35.5847 C   0  0  0  0  0  0  0  0  0  0  0  0
   19.1044    5.7539   27.1437 F   0  0  0  0  0  0  0  0  0  0  0  0
   29.0266   12.0211   35.7942 N   0  0  0  0  0  0  0  0  0  0  0  0
   19.4340    9.1765   28.5272 C   0  0  0  0  0  0  0  0  0  0  0  0
   29.2322   13.2300   36.4218 C   0  0  0  0  0  0  0  0  0  0  0  0
   29.0105    9.5562   34.6505 N   0  0  0  0  0  0  0  0  0  0  0  0
   19.6131    7.7212   26.0538 C   0  0  0  0  0  0  0  0  0  0  0  0
   30.0466   10.2915   34.7292 C   0  0  0  0  0  0  0  0  0  0  0  0
   19.6867    9.8467   27.3015 C   0  0  0  0  0  0  0  0  0  0  0  0
   22.3073    8.3578   34.6709 N   0  0  0  0  0  0  0  0  0  0  0  0
   30.2293   11.4702   35.4078 C   0  0  0  0  0  0  0  0  0  0  0  0
   19.6964    9.1176   26.1314 C   0  0  0  0  0  0  0  0  0  0  0  0
   31.1474   12.2598   35.8093 O   0  0  0  0  0  0  0  0  0  0  0  0
  1  2  2  0
  2  3  1  0
  1  4  1  0
  2  5  1  0
  5  6  1  0
  3  7  2  0
  6  8  1  0
  6  9  1  0
  4 10  2  0
  7 10  1  0
  9 11  1  0
 10 12  1  0
  9 13  2  0
 13 14  1  0
 12 15  1  0
 15 16  1  0
 11 17  2  0
 12 18  2  0
  8 19  1  0
 16 20  2  0
 14 21  2  0
 17 21  1  0
 20 22  1  0
 21 23  1  0
 16 24  1  0
 23 25  1  0
 14 26  1  0
 20 27  1  0
 26 28  2  0
 24 29  2  0
  3 30  1  0
  8 30  2  0
 23 31  1  0
 28 31  1  0
 27 32  2  0
 29 32  1  0
 31 33  2  0
M  END
>  <ID>  (1) 
conformer_0

$$$$
