
     RDKit          3D

 30 33  0  0  0  0  0  0  0  0999 V2000
   23.2462    8.3723   26.4621 C   0  0  0  0  0  0  0  0  0  0  0  0
   23.0390    8.7026   27.7103 C   0  0  0  0  0  0  0  0  0  0  0  0
   21.7773    8.5231   28.2749 C   0  0  0  0  0  0  0  0  0  0  0  0
   21.5169    8.9060   29.6750 C   0  0  0  0  0  0  0  0  0  0  0  0
   20.2869    8.6134   30.2303 C   0  0  0  0  0  0  0  0  0  0  0  0
   22.6295    9.2644   30.5771 C   0  0  0  0  0  0  0  0  0  0  0  0
   19.1594    8.2861   29.3502 C   0  0  0  0  0  0  0  0  0  0  0  0
   20.7111    8.2298   27.3376 C   0  0  0  0  0  0  0  0  0  0  0  0
   22.6903    9.4597   31.7519 C   0  0  0  0  0  0  0  0  0  0  0  0
   23.8187    9.8019   32.5169 O   0  0  0  0  0  0  0  0  0  0  0  0
   17.8237    8.1251   29.8370 C   0  0  0  0  0  0  0  0  0  0  0  0
   16.8984    8.2788   29.0908 N   0  0  0  0  0  0  0  0  0  0  0  0
   19.3975    8.0997   28.0022 C   0  0  0  0  0  0  0  0  0  0  0  0
   23.8556    9.6931   33.7726 C   0  0  0  0  0  0  0  0  0  0  0  0
   20.9490    7.9797   26.0133 C   0  0  0  0  0  0  0  0  0  0  0  0
   24.9177   10.0110   34.5466 C   0  0  0  0  0  0  0  0  0  0  0  0
   22.1967    7.9849   25.5703 C   0  0  0  0  0  0  0  0  0  0  0  0
   25.7473    9.1123   35.0849 N   0  0  0  0  0  0  0  0  0  0  0  0
   22.7065    8.8228   34.1803 C   0  0  0  0  0  0  0  0  0  0  0  0
   27.1334    9.4098   34.6919 C   0  0  0  0  0  0  0  0  0  0  0  0
   24.6743   11.0794   35.4781 C   0  0  0  0  0  0  0  0  0  0  0  0
   28.1601    8.5552   34.7908 N   0  0  0  0  0  0  0  0  0  0  0  0
   29.3860    9.2098   34.6528 C   0  0  0  0  0  0  0  0  0  0  0  0
   29.4167   10.5438   34.7499 C   0  0  0  0  0  0  0  0  0  0  0  0
   23.6163   11.4872   36.0382 O   0  0  0  0  0  0  0  0  0  0  0  0
   30.4921    8.5307   34.5648 N   0  0  0  0  0  0  0  0  0  0  0  0
   21.5848    9.1489   32.7985 S   0  0  0  0  0  0  0  0  0  0  0  0
   25.6244   12.2079   35.3032 O   0  0  0  0  0  0  0  0  0  0  0  0
   27.5746   10.9469   34.8510 S   0  0  0  0  0  0  0  0  0  0  0  0
   17.7312    7.3658   30.9420 O   0  0  0  0  0  0  0  0  0  0  0  0
  1  2  2  0
  2  3  1  0
  3  4  1  0
  4  5  2  0
  4  6  1  0
  5  7  1  0
  3  8  2  0
  6  9  2  3
  9 10  1  0
  7 11  1  0
 11 12  1  0
  7 13  2  0
  8 13  1  0
 10 14  1  0
  8 15  1  0
 14 16  1  0
  1 17  1  0
 15 17  2  0
 16 18  1  0
 14 19  2  0
 18 20  1  0
 16 21  1  0
 20 22  2  0
 22 23  1  0
 23 24  2  0
 21 25  1  0
 23 26  1  0
  9 27  1  0
 19 27  1  0
 21 28  1  0
 20 29  1  0
 24 29  1  0
 11 30  2  0
M  END
>  <ID>  (1) 
conformer_0

$$$$
