
     RDKit          3D

 10 10  0  0  0  0  0  0  0  0999 V2000
   20.5294    7.3991   25.9350 C   0  0  0  0  0  0  0  0  0  0  0  0
   21.5877    7.8253   26.4059 C   0  0  0  0  0  0  0  0  0  0  0  0
   22.8422    7.9818   25.8448 C   0  0  0  0  0  0  0  0  0  0  0  0
   21.4909    8.3745   27.8749 C   0  0  0  0  0  0  0  0  0  0  0  0
   20.2721    8.3276   28.5310 C   0  0  0  0  0  0  0  0  0  0  0  0
   19.1539    7.7632   27.8911 C   0  0  0  0  0  0  0  0  0  0  0  0
   17.8905    7.7236   28.6680 C   0  0  0  0  0  0  0  0  0  0  0  0
   17.9808    7.5757   29.9499 O   0  0  0  0  0  0  0  0  0  0  0  0
   16.8705    7.3611   28.0951 O   0  0  0  0  0  0  0  0  0  0  0  0
   19.2530    7.2817   26.6325 C   0  0  0  0  0  0  0  0  0  0  0  0
  1  2  1  0
  2  3  1  0
  2  4  2  0
  4  5  1  0
  5  6  2  0
  6  7  1  0
  7  8  1  0
  7  9  2  0
  1 10  2  0
  6 10  1  0
M  END
>  <ID>  (1) 
conformer_0

$$$$
