
     RDKit          3D

  6  6  0  0  0  0  0  0  0  0999 V2000
   23.3978    8.0853   35.1288 N   0  0  0  0  0  0  0  0  0  0  0  0
   23.7569    9.3364   35.4797 C   0  0  0  0  0  0  0  0  0  0  0  0
   22.9225    8.0042   33.9184 N   0  0  0  0  0  0  0  0  0  0  0  0
   23.5619   10.0848   34.3012 N   0  0  0  0  0  0  0  0  0  0  0  0
   23.0669    9.2797   33.4089 N   0  0  0  0  0  0  0  0  0  0  0  0
   24.3504    9.9215   36.6199 N   0  0  0  0  0  0  0  0  0  0  0  0
  1  2  1  0
  1  3  1  0
  2  4  2  0
  3  5  2  0
  4  5  1  0
  2  6  1  0
M  END
>  <ID>  (1) 
conformer_0

$$$$
