
     RDKit          3D

 42 48  0  0  0  0  0  0  0  0999 V2000
   22.3866    9.7850   31.2957 C   0  0  0  0  0  0  0  0  0  0  0  0
   22.6903    9.5705   32.4623 C   0  0  0  0  0  0  0  0  0  0  0  0
   21.9892    8.6887   33.3683 C   0  0  0  0  0  0  0  0  0  0  0  0
   21.3656    9.0068   30.6274 C   0  0  0  0  0  0  0  0  0  0  0  0
   23.7326   10.2715   33.2357 C   0  0  0  0  0  0  0  0  0  0  0  0
   24.1902    9.6652   34.2601 N   0  0  0  0  0  0  0  0  0  0  0  0
   20.8494    8.0093   32.8080 N   0  0  0  0  0  0  0  0  0  0  0  0
   20.5830    8.2511   31.5182 C   0  0  0  0  0  0  0  0  0  0  0  0
   19.3434    7.8640   30.9043 C   0  0  0  0  0  0  0  0  0  0  0  0
   25.3039   10.3109   34.9450 C   0  0  0  0  0  0  0  0  0  0  0  0
   21.4015    8.9027   29.2338 C   0  0  0  0  0  0  0  0  0  0  0  0
   22.2779    9.4246   28.4107 N   0  0  0  0  0  0  0  0  0  0  0  0
   18.4519    7.2137   31.7170 O   0  0  0  0  0  0  0  0  0  0  0  0
   20.2308    8.2481   28.6629 C   0  0  0  0  0  0  0  0  0  0  0  0
   25.3592   11.5221   35.3030 N   0  0  0  0  0  0  0  0  0  0  0  0
   22.1479    9.0557   27.1171 C   0  0  0  0  0  0  0  0  0  0  0  0
   26.5026    9.4753   34.9304 C   0  0  0  0  0  0  0  0  0  0  0  0
   22.3127    8.4267   34.7393 C   0  0  0  0  0  0  0  0  0  0  0  0
   26.7128   11.7671   35.7273 C   0  0  0  0  0  0  0  0  0  0  0  0
   22.8018    9.0014   26.1084 N   0  0  0  0  0  0  0  0  0  0  0  0
   26.8700   13.1246   36.2679 C   0  0  0  0  0  0  0  0  0  0  0  0
   20.7059    8.2018   27.2191 C   0  0  0  0  0  0  0  0  0  0  0  0
   23.4445    8.8658   35.1718 C   0  0  0  0  0  0  0  0  0  0  0  0
   20.0836    7.6052   26.1837 C   0  0  0  0  0  0  0  0  0  0  0  0
   25.9186   13.9996   36.5353 C   0  0  0  0  0  0  0  0  0  0  0  0
   27.0653    8.4056   34.5675 C   0  0  0  0  0  0  0  0  0  0  0  0
   28.2456   13.4463   36.5434 C   0  0  0  0  0  0  0  0  0  0  0  0
   27.5802   10.7395   35.4113 C   0  0  0  0  0  0  0  0  0  0  0  0
   18.8617    6.9823   26.5580 C   0  0  0  0  0  0  0  0  0  0  0  0
   28.8443   10.2127   35.3434 C   0  0  0  0  0  0  0  0  0  0  0  0
   28.4953   14.6227   37.1630 C   0  0  0  0  0  0  0  0  0  0  0  0
   29.8516   15.0370   37.4508 C   0  0  0  0  0  0  0  0  0  0  0  0
   29.1068   12.5705   36.6509 O   0  0  0  0  0  0  0  0  0  0  0  0
   29.3052    9.1100   34.8904 C   0  0  0  0  0  0  0  0  0  0  0  0
   26.1969    7.5023   34.1109 O   0  0  0  0  0  0  0  0  0  0  0  0
   26.0953   15.2086   36.9728 C   0  0  0  0  0  0  0  0  0  0  0  0
   19.2056    7.5421   29.4139 C   0  0  0  0  0  0  0  0  0  0  0  0
   28.4759    8.1825   34.5293 C   0  0  0  0  0  0  0  0  0  0  0  0
   27.5227   15.6021   37.3356 C   0  0  0  0  0  0  0  0  0  0  0  0
   30.4971   15.8136   36.7361 O   0  0  0  0  0  0  0  0  0  0  0  0
   30.6276   14.3723   38.2736 O   0  0  0  0  0  0  0  0  0  0  0  0
   18.3601    6.0025   25.6775 C   0  0  0  0  0  0  0  0  0  0  0  0
  1  2  2  0
  2  3  1  0
  1  4  1  0
  2  5  1  0
  5  6  1  0
  3  7  2  0
  4  8  2  0
  7  8  1  0
  8  9  1  0
  6 10  1  0
  4 11  1  0
 11 12  2  0
  9 13  1  0
 11 14  1  0
 10 15  2  0
 12 16  1  0
 10 17  1  0
  3 18  1  0
 15 19  1  0
 16 20  2  0
 19 21  2  3
 14 22  1  0
 16 22  1  0
  6 23  1  0
 18 23  2  0
 22 24  2  3
 21 25  1  0
 17 26  2  0
 21 27  1  0
 17 28  1  0
 19 28  1  0
 24 29  1  0
 28 30  2  0
 27 31  1  0
 31 32  1  0
 27 33  2  0
 30 34  1  0
 26 35  1  0
 25 36  2  0
  9 37  2  0
 14 37  1  0
 26 38  1  0
 34 38  2  0
 31 39  2  0
 36 39  1  0
 32 40  2  0
 32 41  1  0
 29 42  1  0
M  END
>  <ID>  (1) 
conformer_0

$$$$
