
     RDKit          3D

 24 28  0  0  0  0  0  0  0  0999 V2000
   -9.8349   31.6000   -1.9341 C   0  0  0  0  0  0  0  0  0  0  0  0
  -10.5312   30.9777   -3.4827 C   0  0  0  0  0  0  0  0  0  0  0  0
   -3.3479   29.9414   -3.0829 C   0  0  0  0  0  0  0  0  0  0  0  0
   -9.9864   30.0616   -4.0864 C   0  0  0  0  0  0  0  0  0  0  0  0
   -3.4082   28.8658   -5.3152 C   0  0  0  0  0  0  0  0  0  0  0  0
   -8.7415   30.8522   -2.7111 C   0  0  0  0  0  0  0  0  0  0  0  0
   -5.5228   27.3648   -8.3565 C   0  0  0  0  0  0  0  0  0  0  0  0
   -8.7317   29.7866   -4.1708 C   0  0  0  0  0  0  0  0  0  0  0  0
   -2.7274   30.4649   -2.0359 N   0  0  0  0  0  0  0  0  0  0  0  0
   -3.8200   31.2194   -1.4019 C   0  0  0  0  0  0  0  0  0  0  0  0
  -12.7610   33.1465    0.2360 O   0  0  0  0  0  0  0  0  0  0  0  0
  -10.2107   32.2721   -0.8408 C   0  0  0  0  0  0  0  0  0  0  0  0
  -11.4667   33.0944    0.6112 C   0  0  0  0  0  0  0  0  0  0  0  0
   -4.4302   28.1702   -7.3053 O   0  0  0  0  0  0  0  0  0  0  0  0
  -11.0137   33.4474    1.4728 C   0  0  0  0  0  0  0  0  0  0  0  0
   -7.4061   30.5040   -3.1367 C   0  0  0  0  0  0  0  0  0  0  0  0
   -5.0160   31.3946   -1.9428 N   0  0  0  0  0  0  0  0  0  0  0  0
   -7.6665   29.2633   -4.7187 N   0  0  0  0  0  0  0  0  0  0  0  0
   -5.0936   30.4992   -2.8577 C   0  0  0  0  0  0  0  0  0  0  0  0
   -5.5173   29.3571   -4.3098 C   0  0  0  0  0  0  0  0  0  0  0  0
   -3.3076   28.5579   -5.0250 O   0  0  0  0  0  0  0  0  0  0  0  0
   -4.0283   31.9855   -0.1543 N   0  0  0  0  0  0  0  0  0  0  0  0
   -4.9926   28.0066   -6.3242 C   0  0  0  0  0  0  0  0  0  0  0  0
   -6.7090   29.5659   -4.1627 C   0  0  0  0  0  0  0  0  0  0  0  0
  2  1  1  0
  4  2  1  0
  6  1  1  0
  6  2  1  0
  8  4  1  0
  8  6  1  0
  9  3  1  0
 10  9  2  0
 12  1  2  0
 13 11  1  0
 13 12  2  0
 14  7  1  0
 15 13  1  0
 16  6  1  0
 16  8  1  0
 17 10  1  0
 18  8  1  0
 19  3  2  0
 19 17  1  0
 20  5  1  0
 20 19  1  0
 21  5  1  0
 22 10  1  0
 23  5  1  0
 23 14  1  0
 24 16  1  0
 24 18  1  0
 24 20  1  0
M  END
>  <ID>  (1) 
conformer_0

$$$$
