
     RDKit          3D

 25 27  0  0  0  0  0  0  0  0999 V2000
   -5.3946   30.6712   -2.7610 C   0  0  0  0  0  0  0  0  0  0  0  0
   -7.7415   30.7267   -2.7448 C   0  0  1  0  0  0  0  0  0  0  0  0
   -7.0490   30.2439   -3.6385 C   0  0  1  0  0  0  0  0  0  0  0  0
  -10.4089   29.9573   -4.3224 C   0  0  0  0  0  0  0  0  0  0  0  0
   -3.7736   28.5891   -5.1708 C   0  0  0  0  0  0  0  0  0  0  0  0
  -10.5469   31.2222   -3.3151 C   0  0  0  0  0  0  0  0  0  0  0  0
   -3.9047   31.3422   -1.2773 C   0  0  0  0  0  0  0  0  0  0  0  0
   -5.1328   28.3181   -5.7822 C   0  0  0  0  0  0  0  0  0  0  0  0
   -2.7620   30.4580   -1.6102 N   0  0  0  0  0  0  0  0  0  0  0  0
   -9.1714   31.0511   -2.1682 C   0  0  0  0  0  0  0  0  0  0  0  0
   -8.1939   29.7934   -4.6908 C   0  0  0  0  0  0  0  0  0  0  0  0
  -10.0300   31.7706   -1.8111 C   0  0  2  0  0  0  0  0  0  0  0  0
   -4.5810   27.9552   -7.2522 O   0  0  0  0  0  0  0  0  0  0  0  0
  -11.5127   33.2159    0.3739 C   0  0  0  0  0  0  0  0  0  0  0  0
   -3.9521   31.9153   -0.2617 N   0  0  0  0  0  0  0  0  0  0  0  0
  -11.1952   33.5175    1.4279 C   0  0  0  0  0  0  0  0  0  0  0  0
   -5.2124   31.0515   -2.0119 N   0  0  0  0  0  0  0  0  0  0  0  0
  -12.7416   33.1017    0.0330 O   0  0  0  0  0  0  0  0  0  0  0  0
   -3.2983   28.7001   -4.7338 O   0  0  0  0  0  0  0  0  0  0  0  0
   -2.8519   29.9911   -2.3999 C   0  0  0  0  0  0  0  0  0  0  0  0
   -7.5373   29.4177   -5.2931 N   0  0  0  0  0  0  0  0  0  0  0  0
  -10.4025   32.4512   -0.5917 C   0  0  0  0  0  0  0  0  0  0  0  0
   -5.6685   27.3237   -7.7178 C   0  0  0  0  0  0  0  0  0  0  0  0
   -4.1681   29.9692   -3.4312 C   0  0  0  0  0  0  0  0  0  0  0  0
   -9.0419   29.9613   -3.8745 C   0  0  1  0  0  0  0  0  0  0  0  0
  3  1  1  6
  3  2  1  0
  6  4  1  0
  8  5  1  0
  9  7  2  0
  2 10  1  6
 11  3  1  0
 12  6  1  0
 12 10  1  0
 13  8  1  0
 15  7  1  0
 16 14  2  3
 17  1  2  0
 17  7  1  0
 18 14  1  0
 19  5  1  0
 20  9  1  0
 21 11  2  3
 12 22  1  1
 22 14  1  0
 23 13  1  0
 24  1  1  0
 24 19  1  0
 24 20  2  0
 25  2  1  0
 25  4  1  6
 25 11  1  0
M  END
>  <ID>  (1) 
conformer_0

$$$$
