
     RDKit          3D

 20 20  0  0  0  0  0  0  0  0999 V2000
  -10.3816   31.0871   -3.3746 C   0  0  0  0  0  0  0  0  0  0  0  0
   -9.7802   30.0472   -4.0072 C   0  0  0  0  0  0  0  0  0  0  0  0
   -2.9346   29.8381   -2.8989 C   0  0  0  0  0  0  0  0  0  0  0  0
   -8.0404   30.5314   -3.0927 C   0  0  0  0  0  0  0  0  0  0  0  0
   -4.0358   28.5392   -5.6256 C   0  0  0  0  0  0  0  0  0  0  0  0
   -9.6015   31.3880   -1.9580 C   0  0  0  0  0  0  0  0  0  0  0  0
   -2.9697   30.4942   -1.8859 N   0  0  0  0  0  0  0  0  0  0  0  0
   -8.8354   29.8495   -4.5218 C   0  0  0  0  0  0  0  0  0  0  0  0
   -5.3153   27.7052   -7.7022 C   0  0  0  0  0  0  0  0  0  0  0  0
   -4.0691   31.1411   -1.5869 C   0  0  0  0  0  0  0  0  0  0  0  0
   -3.8761   31.8908   -0.3098 N   0  0  0  0  0  0  0  0  0  0  0  0
  -11.3440   33.1704    0.7443 C   0  0  0  0  0  0  0  0  0  0  0  0
   -4.4496   28.0404   -7.4361 O   0  0  0  0  0  0  0  0  0  0  0  0
   -3.4008   28.7325   -4.6985 O   0  0  0  0  0  0  0  0  0  0  0  0
   -7.0327   30.0839   -3.7427 C   0  0  0  0  0  0  0  0  0  0  0  0
  -12.5936   33.1956    0.5609 O   0  0  0  0  0  0  0  0  0  0  0  0
  -10.3021   31.9249   -1.0820 C   0  0  0  0  0  0  0  0  0  0  0  0
   -4.6887   30.2067   -3.2840 C   0  0  0  0  0  0  0  0  0  0  0  0
  -10.7005   33.2032    0.4441 C   0  0  0  0  0  0  0  0  0  0  0  0
   -5.1133   30.7043   -2.7144 C   0  0  0  0  0  0  0  0  0  0  0  0
  2  1  1  0
  6  1  1  0
  7  3  2  0
  8  2  1  0
  8  4  1  0
 10  7  1  0
 11 10  1  0
 13  5  1  0
 13  9  1  0
 14  3  1  0
 14  5  1  0
 15  4  1  0
 16 12  1  0
 17  6  1  0
 18  3  1  0
 19 12  1  0
 19 17  1  0
 20 10  1  0
 20 15  1  0
 20 18  2  0
M  END
>  <ID>  (1) 
conformer_0

$$$$
