
     RDKit          3D

 22 23  0  0  0  0  0  0  0  0999 V2000
  -10.2236   31.3223   -2.3847 C   0  0  0  0  0  0  0  0  0  0  0  0
   -7.6966   30.7613   -2.8210 C   0  0  0  0  0  0  0  0  0  0  0  0
   -6.5981   29.9352   -3.7244 C   0  0  0  0  0  0  0  0  0  0  0  0
   -2.9981   30.0073   -2.8759 C   0  0  0  0  0  0  0  0  0  0  0  0
   -4.8233   27.9497   -6.3624 C   0  0  1  0  0  0  0  0  0  0  0  0
   -9.9445   31.7052   -1.6803 C   0  0  0  0  0  0  0  0  0  0  0  0
   -8.5771   29.5981   -4.7338 C   0  0  0  0  0  3  0  0  0  0  0  0
   -2.8847   29.8097   -3.4616 N   0  0  0  0  0  0  0  0  0  0  0  0
   -4.9971   27.9128   -7.3226 O   0  0  0  0  0  0  0  0  0  0  0  0
  -11.7005   33.1749    0.5364 C   0  0  0  0  0  0  0  0  0  0  0  0
   -3.8962   31.8368   -0.0827 N   0  0  0  0  0  0  0  0  0  0  0  0
   -4.9458   30.3233   -3.1482 C   0  0  0  0  0  0  0  0  0  0  0  0
   -7.6324   29.0012   -5.2205 N   0  0  0  0  0  0  0  0  0  0  0  0
  -10.8793   32.8182   -0.2693 C   0  0  0  0  0  0  0  0  0  0  0  0
  -13.0635   33.0701    0.3060 O   0  0  0  0  0  0  0  0  0  0  0  0
   -3.3616   28.6861   -5.4796 C   0  0  0  0  0  0  0  0  0  0  0  0
   -4.9852   31.3755   -1.7966 N   0  0  0  0  0  0  0  0  0  0  0  0
   -3.9743   31.1540   -1.5438 C   0  0  0  0  0  0  0  0  0  0  0  0
   -9.0352   30.3939   -3.5148 C   0  0  1  0  0  0  0  0  0  0  0  0
  -10.1806   30.1762   -4.1611 C   0  0  0  0  0  0  0  0  0  0  0  0
   -2.8304   30.6900   -1.3670 N   0  0  0  0  0  0  0  0  0  0  0  0
   -6.2270   28.8227   -4.8570 C   0  0  0  0  0  0  0  0  0  0  0  0
  3  2  2  0
  6  1  1  0
  8  4  3  0
  9  5  1  0
 12  3  1  0
 13  7  1  0
 14  6  2  0
 14 10  2  0
 15 10  1  0
  5 16  1  6
 17 12  2  3
 18 11  2  3
 18 17  1  0
 19  1  1  6
 19  2  1  0
 19  7  1  0
 20  7  1  0
 20 19  1  0
 21  4  1  0
 21 18  1  0
 22  3  1  0
 22  5  1  0
 22 13  2  0
M  RAD  1   7   2
M  END
>  <ID>  (1) 
conformer_0

$$$$
