
     RDKit          3D

 20 21  0  0  0  0  0  0  0  0999 V2000
   -9.7687   31.5448   -1.8385 C   0  0  0  0  0  0  0  0  0  0  0  0
  -10.4732   32.3544   -0.6506 C   0  0  0  0  0  0  0  0  0  0  0  0
   -9.8939   30.9833   -2.8043 C   0  0  2  0  0  0  0  0  0  0  0  0
   -5.1471   30.4963   -2.9322 C   0  0  0  0  0  0  0  0  0  0  0  0
  -11.4947   33.4030    1.6957 C   0  0  0  0  0  0  0  0  0  0  0  0
   -4.5490   28.2453   -5.6814 C   0  0  0  0  0  0  0  0  0  0  0  0
   -9.9532   30.0736   -3.9900 C   0  0  0  0  0  0  0  0  0  0  0  0
   -4.9931   27.8993   -7.9480 O   0  0  0  0  0  0  0  0  0  0  0  0
   -2.8497   30.5775   -2.0228 N   0  0  0  0  0  0  0  0  0  0  0  0
   -8.3387   29.6114   -4.4204 C   0  0  0  0  0  0  0  0  0  0  0  0
   -5.5660   27.4522   -8.1080 C   0  0  0  0  0  0  0  0  0  0  0  0
   -3.7679   31.6035    0.1783 N   0  0  0  0  0  0  0  0  0  0  0  0
  -11.4417   33.1370    0.1237 C   0  0  0  0  0  0  0  0  0  0  0  0
   -3.9046   31.1179   -1.3229 C   0  0  0  0  0  0  0  0  0  0  0  0
   -8.0892   30.5624   -2.8223 C   0  0  1  0  0  0  0  0  0  0  0  0
  -12.7387   33.0522   -0.0110 O   0  0  0  0  0  0  0  0  0  0  0  0
   -4.9692   31.4268   -1.6857 N   0  0  0  0  0  0  0  0  0  0  0  0
   -7.8906   29.1663   -5.0754 N   0  0  0  0  0  0  0  0  0  0  0  0
   -3.1190   30.0622   -3.0193 C   0  0  0  0  0  0  0  0  0  0  0  0
   -6.9116   30.0231   -3.5502 C   0  0  2  0  0  0  0  0  0  0  0  0
  2  1  2  0
  3  1  1  1
  7  3  1  0
  8  6  1  0
 10  7  1  0
 11  8  1  0
 13  2  2  0
 13  5  1  0
 14  9  1  0
 14 12  2  3
 15  3  1  0
 15 10  1  1
 16 13  1  0
 17  4  1  0
 17 14  1  0
 18 10  1  0
 19  6  1  0
 19  9  1  0
 20  4  1  6
 20 10  1  0
 20 15  1  0
M  END
>  <ID>  (1) 
conformer_0

$$$$
