
     RDKit          3D

 23 25  0  0  0  0  0  0  0  0999 V2000
   -9.6498   30.0603   -3.9680 C   0  0  0  0  0  0  0  0  0  0  0  0
  -10.5022   32.8678    0.4300 C   0  0  0  0  0  0  0  0  0  0  0  0
   -9.9818   32.0832   -1.1393 C   0  0  0  0  0  0  0  0  0  0  0  0
   -3.1446   29.9856   -2.8040 C   0  0  0  0  0  0  0  0  0  0  0  0
  -11.1863   32.7734    2.1024 C   0  0  0  0  0  0  0  0  0  0  0  0
  -10.4367   30.7890   -3.3255 C   0  0  0  0  0  0  0  0  0  0  0  0
   -8.0213   29.8023   -4.6232 C   0  0  0  0  0  0  0  0  0  0  0  0
   -5.8102   27.4601   -8.3649 C   0  0  0  0  0  0  0  0  0  0  0  0
   -4.9077   31.5319   -1.8265 N   0  0  0  0  0  0  0  0  0  0  0  0
   -7.6501   29.3547   -5.4875 N   0  0  0  0  0  0  0  0  0  0  0  0
   -9.9820   31.5626   -1.8918 C   0  0  0  0  0  0  0  0  0  0  0  0
   -3.8150   31.2186   -1.1937 C   0  0  0  0  0  0  0  0  0  0  0  0
   -5.2232   28.0311   -7.7768 O   0  0  0  0  0  0  0  0  0  0  0  0
   -5.6322   28.3797   -5.9250 C   0  0  0  0  0  0  0  0  0  0  0  0
  -12.3733   33.0784    0.0850 O   0  0  0  0  0  0  0  0  0  0  0  0
   -5.0145   30.5842   -2.8468 C   0  0  0  0  0  0  0  0  0  0  0  0
   -8.5131   30.8287   -2.4787 C   0  0  0  0  0  0  0  0  0  0  0  0
   -4.3020   28.3409   -5.7136 O   0  0  0  0  0  0  0  0  0  0  0  0
   -3.3593   28.5528   -4.8364 C   0  0  0  0  0  0  0  0  0  0  0  0
  -11.1462   32.9432    0.3658 C   0  0  0  0  0  0  0  0  0  0  0  0
   -2.9137   30.7271   -1.3899 N   0  0  0  0  0  0  0  0  0  0  0  0
   -7.5187   30.4231   -3.0862 C   0  0  0  0  0  0  0  0  0  0  0  0
   -6.3404   29.8573   -3.9082 C   0  0  0  0  0  0  0  0  0  0  0  0
  3  2  1  0
  6  1  1  0
  7  1  1  0
 10  7  1  0
 11  3  1  0
 11  6  1  0
 12  9  2  0
 13  8  1  0
 14 10  1  0
 14 13  1  0
 16  4  2  0
 16  9  1  0
 17 11  2  0
 18 14  1  0
 19 18  1  0
 20  2  1  0
 20  5  1  0
 20 15  1  0
 21  4  1  0
 21 12  1  0
 22  7  1  0
 22 17  2  0
 23  7  1  0
 23 16  1  0
 23 22  1  0
M  END
>  <ID>  (1) 
conformer_0

$$$$
