
     RDKit          3D

 27 28  0  0  0  0  0  0  0  0999 V2000
  -10.1944   31.8627   -1.4552 C   0  0  0  0  0  0  0  0  0  0  0  0
   -8.3570   30.7174   -2.8887 C   0  0  0  0  0  0  0  0  0  0  0  0
   -2.8783   29.9541   -2.9455 C   0  0  0  0  0  0  0  0  0  0  0  0
   -5.6701   27.7307   -6.6237 C   0  0  0  0  0  0  0  0  0  0  0  0
   -7.1470   30.2377   -3.5125 C   0  0  0  0  0  0  0  0  0  0  0  0
  -11.5204   33.2781    2.1393 C   0  0  0  0  0  0  0  0  0  0  0  0
   -7.1648   29.4595   -4.2417 C   0  0  0  0  0  0  0  0  0  0  0  0
   -9.5434   31.3459   -2.0082 C   0  0  0  0  0  0  0  0  0  0  0  0
   -3.0426   30.5263   -1.6957 N   0  0  0  0  0  0  0  0  0  0  0  0
   -3.9180   31.8513   -0.6436 N   0  0  0  0  0  0  0  0  0  0  0  0
   -4.0633   29.6603   -4.1889 C   0  0  0  0  0  0  0  0  0  0  0  0
   -5.0663   27.7589   -7.6419 O   0  0  0  0  0  0  0  0  0  0  0  0
   -5.0503   28.2690   -5.3932 C   0  0  0  0  0  0  0  0  0  0  0  0
   -5.7520   31.1572   -1.6428 N   0  0  0  0  0  0  0  0  0  0  0  0
   -7.7101   29.0831   -5.2757 N   0  0  0  0  0  0  0  0  0  0  0  0
  -11.4580   33.1303    0.3190 C   0  0  0  0  0  0  0  0  0  0  0  0
  -10.7333   32.5239    0.4964 C   0  0  0  0  0  0  0  0  0  0  0  0
  -12.7587   33.0763    0.0110 O   0  0  0  0  0  0  0  0  0  0  0  0
   -5.0012   30.2298   -3.4100 C   0  0  0  0  0  0  0  0  0  0  0  0
   -5.4234   30.5724   -2.7668 C   0  0  0  0  0  0  0  0  0  0  0  0
   -3.3411   28.3030   -6.3646 O   0  0  0  0  0  0  0  0  0  0  0  0
   -9.8900   30.0426   -4.2394 C   0  0  0  0  0  0  0  0  0  0  0  0
  -10.4235   30.9877   -3.5396 C   0  0  0  0  0  0  0  0  0  0  0  0
   -9.0638   29.5583   -4.7534 C   0  0  0  0  0  0  0  0  0  0  0  0
   -2.9797   28.5216   -5.7453 C   0  0  0  0  0  0  0  0  0  0  0  0
   -2.6138   30.1113   -3.8009 N   0  0  0  0  0  0  0  0  0  0  0  0
   -3.8524   31.2071   -1.6832 C   0  0  0  0  0  0  0  0  0  0  0  0
  5  2  2  0
  7  5  1  0
  8  1  1  0
  8  2  2  0
  9  3  1  0
 12  4  2  0
 13  4  1  0
 13 11  1  0
 15  7  1  0
 16  6  1  0
 17  1  1  0
 17 16  1  0
 18 16  1  0
 19 11  2  0
 20  5  1  0
 20 14  1  0
 20 19  2  0
 21 13  1  0
 23  8  1  0
 23 22  1  0
 24 15  1  0
 24 22  1  0
 25 21  1  0
 26  3  1  0
 26 11  1  0
 27  9  2  0
 27 10  1  0
 27 14  1  0
M  END
>  <ID>  (1) 
conformer_0

$$$$
