
     RDKit          3D

 24 25  0  0  0  0  0  0  0  0999 V2000
  -10.5126   30.5112   -3.8960 C   0  0  0  0  0  0  0  0  0  0  0  0
   -8.3828   30.8896   -2.7573 C   0  0  0  0  0  0  0  0  0  0  0  0
   -5.0162   30.2659   -3.3691 C   0  0  0  0  0  0  0  0  0  0  0  0
   -3.5687   28.6738   -5.6522 C   0  0  0  0  0  0  0  0  0  0  0  0
  -10.0514   31.2656   -2.6651 C   0  0  0  0  0  0  0  0  0  0  0  0
   -7.0117   30.2690   -3.3870 C   0  0  0  0  0  0  0  0  0  0  0  0
   -2.7978   30.4757   -2.1145 N   0  0  0  0  0  0  0  0  0  0  0  0
   -8.7215   29.4021   -4.7036 C   0  0  0  0  0  0  0  0  0  0  0  0
   -4.9073   27.7193   -7.6743 O   0  0  0  0  0  0  0  0  0  0  0  0
   -3.8482   31.6574   -0.3703 N   0  0  0  0  0  0  0  0  0  0  0  0
  -11.8777   33.3071    0.8084 C   0  0  0  0  0  0  0  0  0  0  0  0
   -9.9148   31.7430   -1.5106 C   0  0  0  0  0  0  0  0  0  0  0  0
  -13.0204   33.1372    0.7952 O   0  0  0  0  0  0  0  0  0  0  0  0
   -5.0927   28.0910   -5.5898 C   0  0  0  0  0  0  0  0  0  0  0  0
   -3.2268   29.8065   -3.6758 C   0  0  0  0  0  0  0  0  0  0  0  0
   -7.1811   29.3037   -4.9384 N   0  0  0  0  0  0  0  0  0  0  0  0
   -9.3655   29.6172   -4.1362 C   0  0  0  0  0  0  0  0  0  0  0  0
   -5.0985   30.2106   -3.5914 C   0  0  0  0  0  0  0  0  0  0  0  0
   -4.6676   31.3338   -2.0528 N   0  0  0  0  0  0  0  0  0  0  0  0
   -3.7991   30.9810   -1.9387 C   0  0  0  0  0  0  0  0  0  0  0  0
  -10.5782   32.5206   -0.7122 C   0  0  0  0  0  0  0  0  0  0  0  0
   -5.4785   27.4138   -7.5498 C   0  0  0  0  0  0  0  0  0  0  0  0
  -10.9489   32.9891    1.1182 C   0  0  0  0  0  0  0  0  0  0  0  0
   -7.0133   29.9212   -3.8342 C   0  0  0  0  0  0  0  0  0  0  0  0
  5  1  1  0
  5  2  2  0
  6  2  2  0
 12  5  1  0
 13 11  1  0
 14  4  1  0
 15  3  1  0
 15  4  1  0
 15  7  1  0
 16  8  1  0
 17  1  1  0
 17  8  1  0
 18  3  1  0
 18  6  1  0
 19  3  1  0
 20  7  2  0
 20 10  1  0
 20 19  1  0
 21 12  1  0
 22  9  1  0
 22 14  1  0
 23 11  1  0
 23 21  1  0
 24  6  1  0
 24 16  1  0
M  END
>  <ID>  (1) 
conformer_0

$$$$
