
     RDKit          3D

 26 28  0  0  0  0  0  0  0  0999 V2000
   -7.1593   29.7070   -3.9485 C   0  0  0  0  0  0  0  0  0  0  0  0
   -8.9986   29.7056   -4.1848 C   0  0  0  0  0  0  0  0  0  0  0  0
   -4.4955   29.8498   -3.5611 C   0  0  0  0  0  0  0  0  0  0  0  0
   -9.0375   30.9059   -2.4807 C   0  0  2  0  0  0  0  0  0  0  0  0
   -3.4432   28.7177   -5.4384 C   0  0  0  0  0  0  0  0  0  0  0  0
  -10.5160   31.2625   -3.1681 C   0  0  2  0  0  0  0  0  0  0  0  0
   -9.9562   31.9940   -1.7207 C   0  0  1  0  0  0  0  0  0  0  0  0
   -5.5888   30.6375   -2.6968 C   0  0  1  0  0  0  0  0  0  0  0  0
   -5.7360   27.5415   -7.9449 C   0  0  0  0  0  0  0  0  0  0  0  0
   -2.9535   30.6999   -1.8744 N   0  0  0  0  0  0  0  0  0  0  0  0
  -12.6315   33.2191    0.3682 O   0  0  0  0  0  0  0  0  0  0  0  0
   -8.4633   29.8191   -4.7920 C   0  0  0  0  0  0  0  0  0  0  0  0
  -11.4708   33.1949    0.5208 C   0  0  0  0  0  0  0  0  0  0  0  0
  -10.9992   32.4987    1.9156 C   0  0  0  0  0  0  0  0  0  0  0  0
   -4.0194   31.1478   -1.4786 C   0  0  0  0  0  0  0  0  0  0  0  0
   -4.6065   28.0114   -7.3173 O   0  0  0  0  0  0  0  0  0  0  0  0
   -5.3217   31.4756   -1.8571 N   0  0  0  0  0  0  0  0  0  0  0  0
   -3.9821   31.7618   -0.0674 N   0  0  0  0  0  0  0  0  0  0  0  0
  -10.3499   30.3015   -4.2117 C   0  0  0  0  0  0  0  0  0  0  0  0
   -3.4551   28.5379   -4.5401 O   0  0  0  0  0  0  0  0  0  0  0  0
   -8.1890   29.4494   -5.8633 N   0  0  0  0  0  0  0  0  0  0  0  0
   -7.6760   30.8267   -2.8720 C   0  0  1  0  0  0  0  0  0  0  0  0
   -4.9261   28.0484   -5.8295 C   0  0  0  0  0  0  0  0  0  0  0  0
  -10.4382   31.9156   -0.7620 C   0  0  0  0  0  0  0  0  0  0  0  0
   -3.1122   30.0436   -2.8502 C   0  0  0  0  0  0  0  0  0  0  0  0
  -10.6109   33.7285    0.4160 C   0  0  0  0  0  0  0  0  0  0  0  0
  6  4  1  0
  4  7  1  1
  7  6  1  0
  8  3  1  0
 12  1  1  0
 12  2  1  0
 13 11  1  0
 14 13  1  0
 15 10  2  0
 16  9  1  0
  8 17  1  6
 17 15  1  0
 18 15  1  0
 19  2  1  0
  6 19  1  1
 20  3  1  0
 20  5  1  0
 21 12  2  3
 22  1  1  6
 22  4  1  0
 22  8  1  0
 23  5  1  0
 23 16  1  0
  7 24  1  1
 24 13  1  0
 25  3  2  0
 25 10  1  0
 26 13  1  0
M  END
>  <ID>  (1) 
conformer_0

$$$$
