
     RDKit          3D

 20 21  0  0  0  0  0  0  0  0999 V2000
   -7.0738   30.2235   -3.7309 C   0  0  0  0  0  0  0  0  0  0  0  0
   -9.7623   30.3383   -3.9051 C   0  0  0  0  0  0  0  0  0  0  0  0
   -4.9975   30.2323   -3.1849 C   0  0  0  0  0  0  0  0  0  0  0  0
   -8.2124   30.8268   -2.7855 C   0  0  0  0  0  3  0  0  0  0  0  0
   -4.7807   28.2665   -5.5292 C   0  0  0  0  0  0  0  0  0  0  0  0
  -10.5812   31.1861   -3.1967 C   0  0  0  0  0  0  0  0  0  0  0  0
   -5.1687   31.4416   -1.9451 N   0  0  0  0  0  0  0  0  0  0  0  0
  -11.3000   33.7633    0.8037 C   0  0  0  0  0  0  0  0  0  0  0  0
   -8.2007   29.7756   -4.5703 C   0  0  0  0  0  0  0  0  0  0  0  0
   -3.2294   29.7785   -3.1792 C   0  0  1  0  0  0  0  0  0  0  0  0
   -4.2374   28.0419   -7.2029 O   0  0  0  0  0  0  0  0  0  0  0  0
  -13.0951   32.8250    0.4671 O   0  0  0  0  0  0  0  0  0  0  0  0
   -3.9542   31.6226   -0.0379 N   0  0  0  0  0  0  0  0  0  0  0  0
  -11.8132   33.1893    0.5792 C   0  0  0  0  0  0  0  0  0  0  0  0
   -2.8361   28.5408   -5.6624 C   0  0  0  0  0  0  0  0  0  0  0  0
   -3.9584   30.9209   -1.7579 C   0  0  0  0  0  0  0  0  0  0  0  0
   -9.7200   31.5048   -1.8798 C   0  0  0  0  0  0  0  0  0  0  0  0
  -10.5468   32.2907   -0.9361 C   0  0  0  0  0  0  0  0  0  0  0  0
   -3.0476   30.7033   -1.6688 N   0  0  0  0  0  0  0  0  0  0  0  0
   -8.0887   29.4311   -5.1516 N   0  0  0  0  0  0  0  0  0  0  0  0
  3  1  1  0
  4  1  2  0
  6  2  1  0
  7  3  1  0
  9  1  1  0
  9  2  1  0
 10  3  1  0
 11  5  1  0
 14  8  1  0
 14 12  1  0
 15  5  1  0
 10 15  1  6
 16  7  2  0
 16 13  1  0
 17  4  1  0
 17  6  1  0
 18 14  2  0
 18 17  2  0
 19 10  1  0
 19 16  1  0
 20  9  2  3
M  RAD  1   4   2
M  END
>  <ID>  (1) 
conformer_0

$$$$
