
     RDKit          3D

 21 23  0  0  0  0  0  0  0  0999 V2000
   -9.7323   29.9902   -4.3243 C   0  0  0  0  0  0  0  0  0  0  0  0
   -3.6976   30.9007   -1.7210 C   0  0  0  0  0  0  0  0  0  0  0  0
   -9.8872   31.6029   -1.8712 C   0  0  0  0  0  0  0  0  0  0  0  0
  -10.1510   32.0367   -1.0623 C   0  0  0  0  0  0  0  0  0  0  0  0
   -5.4580   28.3810   -5.6367 C   0  0  0  0  0  0  0  0  0  0  0  0
  -10.5059   33.1773    0.4525 C   0  0  0  0  0  0  0  0  0  0  0  0
   -4.8444   31.3904   -1.7644 N   0  0  0  0  0  0  0  0  0  0  0  0
   -8.1802   29.4428   -4.6649 C   0  0  0  0  0  0  0  0  0  0  0  0
  -11.4030   33.2068    0.2472 C   0  0  0  0  0  0  0  0  0  0  0  0
   -4.8408   27.9204   -7.0235 O   0  0  0  0  0  0  0  0  0  0  0  0
   -8.6346   30.9252   -2.5677 C   0  0  0  0  0  0  0  0  0  0  0  0
   -3.7429   29.8219   -3.4612 C   0  0  0  0  0  0  0  0  0  0  0  0
   -3.8722   31.7682    0.0471 N   0  0  0  0  0  0  0  0  0  0  0  0
   -7.6480   28.9995   -5.4813 N   0  0  0  0  0  0  0  0  0  0  0  0
  -12.6916   33.0559    0.1743 O   0  0  0  0  0  0  0  0  0  0  0  0
   -3.0666   30.1743   -2.5393 N   0  0  0  0  0  0  0  0  0  0  0  0
   -7.7222   30.5101   -3.3067 C   0  0  0  0  0  0  0  0  0  0  0  0
   -5.2821   30.4765   -3.0288 C   0  0  0  0  0  0  0  0  0  0  0  0
   -6.5986   30.0262   -3.9905 C   0  0  0  0  0  0  0  0  0  0  0  0
  -10.3878   30.8745   -3.5871 C   0  0  0  0  0  0  0  0  0  0  0  0
   -3.7374   28.3713   -5.4744 C   0  0  0  0  0  0  0  0  0  0  0  0
  4  3  1  0
  6  4  1  0
  7  2  2  0
  8  1  1  0
  9  6  1  0
 10  5  2  0
 11  3  2  0
 13  2  1  0
 14  5  1  0
 14  8  1  0
 15  9  1  0
 16  2  1  0
 16 12  2  0
 17  8  1  0
 17 11  2  0
 18  7  1  0
 18 12  1  0
 19  8  1  0
 19 17  1  0
 19 18  1  0
 20  1  1  0
 20  3  1  0
 21  5  1  0
M  END
>  <ID>  (1) 
conformer_0

$$$$
