
     RDKit          3D

 23 24  0  0  0  0  0  0  0  0999 V2000
   -4.1441   29.9214   -3.5147 C   0  0  0  0  0  0  0  0  0  0  0  0
   -8.1947   30.9137   -2.8462 C   0  0  0  0  0  0  0  0  0  0  0  0
   -9.5188   30.0537   -4.0394 C   0  0  0  0  0  0  0  0  0  0  0  0
   -7.1350   30.1034   -3.6623 C   0  0  2  0  0  0  0  0  0  0  0  0
  -10.4315   32.0558   -1.5807 C   0  0  0  0  0  0  0  0  0  0  0  0
   -4.7740   28.8554   -5.2856 C   0  0  0  0  0  0  0  0  0  0  0  0
  -10.5657   32.7672   -0.5343 C   0  0  0  0  0  0  0  0  0  0  0  0
   -5.1765   31.2691   -2.0084 N   0  0  0  0  0  0  0  0  0  0  0  0
   -5.0097   27.7813   -7.6561 O   0  0  0  0  0  0  0  0  0  0  0  0
   -5.3763   30.6701   -2.8517 C   0  0  0  0  0  0  0  0  0  0  0  0
   -3.7370   31.4345    0.1198 N   0  0  0  0  0  0  0  0  0  0  0  0
  -12.9340   33.0236    0.1714 O   0  0  0  0  0  0  0  0  0  0  0  0
   -5.8670   27.5928   -7.3838 C   0  0  0  0  0  0  0  0  0  0  0  0
  -11.2242   33.5619    1.1083 C   0  0  0  0  0  0  0  0  0  0  0  0
  -11.6447   33.3560    0.3120 C   0  0  0  0  0  0  0  0  0  0  0  0
   -7.8764   29.6871   -4.6634 C   0  0  0  0  0  0  0  0  0  0  0  0
   -3.8598   31.1767   -1.2141 C   0  0  0  0  0  0  0  0  0  0  0  0
   -2.9640   30.5534   -1.6908 N   0  0  0  0  0  0  0  0  0  0  0  0
   -9.4612   31.6946   -2.1103 C   0  0  2  0  0  0  0  0  0  0  0  0
  -10.4906   30.9370   -3.3269 C   0  0  0  0  0  0  0  0  0  0  0  0
   -6.9712   29.2526   -5.4061 N   0  0  0  0  0  0  0  0  0  0  0  0
   -3.9485   28.1277   -4.8668 C   0  0  0  0  0  0  0  0  0  0  0  0
   -2.8053   30.0089   -2.5587 C   0  0  0  0  0  0  0  0  0  0  0  0
  4  2  1  6
  6  1  1  0
  7  5  2  3
 10  1  2  0
 10  4  1  0
 10  8  1  0
 13  6  1  0
 13  9  1  0
 15  7  1  0
 15 12  1  0
 15 14  2  3
 16  3  1  0
 16  4  1  0
 17  8  2  0
 17 11  1  0
 18 17  1  0
 19  2  1  1
 19  5  1  0
 20  3  1  0
 20 19  1  0
 21 16  2  3
 22  6  2  3
 23  1  1  0
 23 18  2  0
M  END
>  <ID>  (1) 
conformer_0

$$$$
