
     RDKit          3D

 25 26  0  0  0  0  0  0  0  0999 V2000
   -4.2245   29.8214   -3.6406 C   0  0  0  0  0  0  0  0  0  0  0  0
   -7.7968   30.5811   -3.1309 C   0  0  0  0  0  0  0  0  0  0  0  0
   -9.6187   31.3422   -2.2052 C   0  0  0  0  0  0  0  0  0  0  0  0
   -3.2289   28.4439   -5.5193 C   0  0  0  0  0  0  0  0  0  0  0  0
   -6.7643   29.7487   -3.9851 C   0  0  1  0  0  0  0  0  0  0  0  0
  -11.3550   34.2168    1.5615 C   0  0  0  0  0  0  0  0  0  0  0  0
  -10.3101   31.7800   -1.6029 C   0  0  0  0  0  0  0  0  0  0  0  0
   -7.5763   29.6498   -4.5824 C   0  0  0  0  0  0  0  0  0  0  0  0
   -5.4706   30.3557   -2.9711 C   0  0  2  0  0  0  0  0  0  0  0  0
   -2.9025   30.7520   -1.2350 N   0  0  0  0  0  0  0  0  0  0  0  0
  -11.5219   33.2802    0.3220 C   0  0  2  0  0  0  0  0  0  0  0  0
   -4.1559   27.8492   -7.0640 O   0  0  0  0  0  0  0  0  0  0  0  0
   -5.4450   31.1531   -2.0778 N   0  0  0  0  0  0  0  0  0  0  0  0
   -4.0409   31.9614   -0.2991 N   0  0  0  0  0  0  0  0  0  0  0  0
   -4.6029   27.9286   -5.2369 C   0  0  0  0  0  0  0  0  0  0  0  0
  -12.9195   33.0133    0.2478 O   0  0  0  0  0  0  0  0  0  0  0  0
  -10.7474   32.7626   -0.0424 C   0  0  0  0  0  0  0  0  0  0  0  0
   -4.1011   31.2385   -1.5181 C   0  0  0  0  0  0  0  0  0  0  0  0
   -8.3516   29.4607   -5.5144 N   0  0  0  0  0  0  0  0  0  0  0  0
   -2.9785   29.7980   -3.2098 N   0  0  0  0  0  0  0  0  0  0  0  0
   -9.2186   30.0232   -3.9323 C   0  0  1  0  0  0  0  0  0  0  0  0
  -10.3709   30.7423   -3.7398 C   0  0  0  0  0  0  0  0  0  0  0  0
   -2.7158   30.0567   -2.3879 C   0  0  0  0  0  0  0  0  0  0  0  0
   -5.3455   27.7563   -7.1513 C   0  0  0  0  0  0  0  0  0  0  0  0
   -9.4843   29.5248   -5.1036 C   0  0  0  0  0  0  0  0  0  0  0  0
  5  2  1  1
  7  3  1  0
  8  5  1  0
  9  1  1  6
  9  5  1  0
 11  6  1  1
 13  9  1  0
 15  4  1  0
 15 12  1  0
 16 11  1  0
 17  7  2  3
 17 11  1  0
 18 10  1  0
 18 13  1  0
 18 14  2  3
 19  8  1  0
 20  1  1  0
 21  2  1  0
 21  8  1  0
 22  3  1  0
 21 22  1  6
 23  4  1  0
 23 10  1  0
 24 12  1  0
 25 19  1  0
 25 21  1  0
M  END
>  <ID>  (1) 
conformer_0

$$$$
