
     RDKit          3D

 25 28  0  0  0  0  0  0  0  0999 V2000
  -10.1321   31.4786   -2.2236 C   0  0  0  0  0  0  0  0  0  0  0  0
   -2.9286   30.1311   -2.2238 C   0  0  0  0  0  0  0  0  0  0  0  0
  -10.3431   30.3331   -3.9672 C   0  0  0  0  0  0  0  0  0  0  0  0
   -8.9110   29.9533   -3.8768 C   0  0  1  0  0  0  0  0  0  0  0  0
   -5.9905   27.4275   -7.9217 C   0  0  0  0  0  0  0  0  0  0  0  0
   -5.4640   31.3523   -2.0431 N   0  0  0  0  0  0  0  0  0  0  0  0
  -11.4185   32.9073    0.2078 C   0  0  0  0  0  0  0  0  0  0  0  0
   -9.0484   30.9117   -2.2276 C   0  0  1  0  0  0  0  0  0  0  0  0
   -3.9458   31.1476   -1.3726 C   0  0  2  0  0  0  0  0  0  0  0  0
   -8.0641   29.4253   -4.8681 C   0  0  0  0  0  0  0  0  0  0  0  0
   -2.7663   30.5967   -0.8603 N   0  0  0  0  0  0  0  0  0  0  0  0
  -10.2948   32.1564   -0.7287 C   0  0  0  0  0  0  0  0  0  0  0  0
   -3.9252   31.9401   -0.0803 N   0  0  0  0  0  0  0  0  0  0  0  0
   -3.8338   28.2647   -5.9390 O   0  0  0  0  0  0  0  0  0  0  0  0
   -7.6688   29.0515   -5.6293 N   0  0  0  0  0  0  0  0  0  0  0  0
  -10.9302   33.6796    1.1155 C   0  0  0  0  0  0  0  0  0  0  0  0
   -5.4696   30.6397   -2.8087 C   0  0  0  0  0  0  0  0  0  0  0  0
   -5.0837   29.9024   -3.9890 C   0  0  2  0  0  0  0  0  0  0  0  0
   -5.2610   28.4468   -5.9991 C   0  0  1  0  0  0  0  0  0  0  0  0
  -12.9051   32.9033    0.2394 N   0  0  0  0  0  0  0  0  0  0  0  0
   -4.9081   27.9610   -7.8099 O   0  0  0  0  0  0  0  0  0  0  0  0
   -7.5810   30.5405   -3.1118 C   0  0  1  0  0  0  0  0  0  0  0  0
   -4.2146   29.8508   -3.7573 C   0  0  0  0  0  0  0  0  0  0  0  0
   -2.9546   30.0164   -2.9896 N   0  0  0  0  0  0  0  0  0  0  0  0
   -6.5414   29.6645   -4.3861 C   0  0  1  0  0  0  0  0  0  0  0  0
  4  3  1  1
  8  1  1  6
  8  4  1  0
  9  2  1  0
  9  6  1  0
 10  4  1  0
 11  2  2  0
 11  9  1  0
 12  1  1  0
 12  7  1  0
  9 13  1  6
 15 10  2  3
 16  7  2  3
 17  6  1  0
 18 17  1  1
 19 14  1  1
 19 18  1  0
 20  7  1  0
 21  5  1  0
 21 19  1  0
 22  4  1  0
 22  8  1  1
 23 18  1  0
 24  2  1  0
 24 23  1  0
 25 10  1  6
 25 18  1  0
 25 22  1  0
M  END
>  <ID>  (1) 
conformer_0

$$$$
