
     RDKit          3D

 22 22  0  0  0  0  0  0  0  0999 V2000
   -4.0234   30.9910   -1.8866 C   0  0  0  0  0  0  0  0  0  0  0  0
  -10.4104   30.9977   -3.7372 C   0  0  1  0  0  0  0  0  0  0  0  0
  -10.0956   32.1237   -1.0728 C   0  0  0  0  0  0  0  0  0  0  0  0
   -9.8532   31.7728   -2.0586 C   0  0  1  0  0  0  0  0  0  0  0  0
   -5.2373   28.2236   -6.1125 C   0  0  0  0  0  0  0  0  0  0  0  0
   -8.8219   30.8976   -2.7772 C   0  0  2  0  0  0  0  0  0  0  0  0
   -7.8872   29.5913   -4.4518 C   0  0  2  0  0  0  0  0  0  0  0  0
   -9.7956   29.9164   -4.0241 C   0  0  0  0  0  0  0  0  0  0  0  0
   -2.6278   30.0826   -2.6901 N   0  0  0  0  0  0  0  0  0  0  0  0
   -4.6886   27.9394   -7.2275 O   0  0  0  0  0  0  0  0  0  0  0  0
   -4.8773   30.0514   -3.5359 C   0  0  0  0  0  0  0  0  0  0  0  0
   -7.4639   29.3792   -5.1014 N   0  0  0  0  0  0  0  0  0  0  0  0
   -7.6907   30.2217   -3.2600 C   0  0  0  0  0  0  0  0  0  0  0  0
   -3.9546   31.8838   -0.3580 N   0  0  0  0  0  0  0  0  0  0  0  0
  -12.4453   33.1730    0.0508 O   0  0  0  0  0  0  0  0  0  0  0  0
  -10.9762   32.6154    1.3716 C   0  0  0  0  0  0  0  0  0  0  0  0
  -11.3876   33.1532    0.4084 C   0  0  0  0  0  0  0  0  0  0  0  0
   -5.2595   30.2453   -3.5668 C   0  0  0  0  0  0  0  0  0  0  0  0
  -10.1993   33.8660    0.2603 C   0  0  0  0  0  0  0  0  0  0  0  0
   -3.8344   28.6722   -5.5154 C   0  0  0  0  0  0  0  0  0  0  0  0
   -3.2465   29.8416   -3.1905 C   0  0  0  0  0  0  0  0  0  0  0  0
   -4.2510   31.0622   -1.7627 N   0  0  0  0  0  0  0  0  0  0  0  0
  4  2  1  0
  4  3  1  1
  6  2  1  0
  6  4  1  0
  7  5  1  0
  2  8  1  1
  9  1  1  0
 10  5  2  0
  7 12  1  6
  6 13  1  6
 13  7  1  0
 17 15  1  0
 17 16  2  3
 18 11  2  3
 19  3  1  0
 19 17  1  0
 20  5  1  0
 20 11  1  0
 21  9  2  3
 21 11  1  0
 22  1  1  0
 22 14  1  0
M  END
>  <ID>  (1) 
conformer_0

$$$$
