
     RDKit          3D

 21 22  0  0  0  0  0  0  0  0999 V2000
   -9.6034   30.1144   -4.1310 C   0  0  0  0  0  0  0  0  0  0  0  0
   -8.1671   30.6406   -3.0031 C   0  0  0  0  0  0  0  0  0  0  0  0
   -7.0324   30.1505   -3.6756 C   0  0  0  0  0  0  0  0  0  0  0  0
   -3.4563   29.8732   -3.0868 C   0  0  1  0  0  0  0  0  0  0  0  0
   -3.8238   28.5703   -5.5741 C   0  0  2  0  0  0  0  0  0  0  0  0
  -10.5865   30.9687   -3.9091 C   0  0  0  0  0  0  0  0  0  0  0  0
   -9.3606   31.3684   -1.9998 C   0  0  0  0  0  0  0  0  0  0  0  0
   -7.7239   29.7016   -4.5854 C   0  0  0  0  0  0  0  0  0  0  0  0
  -11.1426   33.2569    1.5782 C   0  0  0  0  0  0  0  0  0  0  0  0
   -5.3092   27.6737   -8.1516 C   0  0  0  0  0  0  0  0  0  0  0  0
   -3.8326   31.1265   -1.3782 C   0  0  0  0  0  0  0  0  0  0  0  0
   -4.0068   31.9234    0.0740 N   0  0  0  0  0  0  0  0  0  0  0  0
   -2.9844   30.3402   -2.5766 N   0  0  0  0  0  0  0  0  0  0  0  0
  -12.7886   32.9923    0.1352 O   0  0  0  0  0  0  0  0  0  0  0  0
  -11.4636   33.1909    0.1849 C   0  0  2  0  0  0  0  0  0  0  0  0
  -10.3148   31.6964   -2.4494 C   0  0  2  0  0  0  0  0  0  0  0  0
  -10.3640   32.3213   -0.6196 C   0  0  0  0  0  0  0  0  0  0  0  0
   -5.1001   30.4296   -2.9418 C   0  0  0  0  0  0  0  0  0  0  0  0
   -4.7358   31.2685   -1.5129 N   0  0  0  0  0  0  0  0  0  0  0  0
   -7.4107   29.2410   -5.1977 N   0  0  0  0  0  0  0  0  0  0  0  0
   -3.9560   28.1097   -5.4024 O   0  0  0  0  0  0  0  0  0  0  0  0
  2  1  1  0
  3  2  2  3
  5  4  1  0
  6  1  1  0
  7  2  1  0
  8  3  1  0
  5 10  1  6
 12 11  1  0
  4 13  1  6
 13 11  2  0
 15  9  1  1
 15 14  1  0
 16  6  1  0
 16  7  1  0
 17 15  1  0
 16 17  1  1
 18  3  1  0
 18  4  1  0
 19 11  1  0
 19 18  2  0
 20  8  2  3
 21  5  1  0
M  END
>  <ID>  (1) 
conformer_0

$$$$
