
     RDKit          3D

 20 21  0  0  0  0  0  0  0  0999 V2000
   -7.0126   29.8874   -3.7188 C   0  0  1  0  0  0  0  0  0  0  0  0
   -7.7839   30.7482   -2.8930 C   0  0  0  0  0  0  0  0  0  0  0  0
   -9.7288   29.9388   -3.9745 C   0  0  0  0  0  0  0  0  0  0  0  0
   -3.4414   29.9046   -3.3645 C   0  0  0  0  0  0  0  0  0  0  0  0
   -4.2911   28.3201   -5.5429 C   0  0  0  0  0  0  0  0  0  0  0  0
  -10.4801   30.8638   -3.4515 C   0  0  0  0  0  0  0  0  0  0  0  0
   -4.9001   31.4893   -1.7623 N   0  0  0  0  0  0  0  0  0  0  0  0
   -3.6079   30.9509   -1.6196 C   0  0  0  0  0  0  0  0  0  0  0  0
   -5.8394   27.3225   -7.5721 C   0  0  0  0  0  0  0  0  0  0  0  0
   -9.2210   31.3576   -2.3403 C   0  0  0  0  0  0  0  0  0  0  0  0
   -8.3463   29.7255   -4.4990 C   0  0  0  0  0  0  0  0  0  0  0  0
   -5.0453   27.5988   -7.7730 O   0  0  0  0  0  0  0  0  0  0  0  0
  -12.8294   33.1333    0.5929 O   0  0  0  0  0  0  0  0  0  0  0  0
   -2.7150   30.1159   -2.6882 N   0  0  0  0  0  0  0  0  0  0  0  0
  -11.1236   33.3773    1.4286 C   0  0  0  0  0  0  0  0  0  0  0  0
  -11.6223   33.3113    1.0255 C   0  0  0  0  0  0  0  0  0  0  0  0
   -5.0182   30.4644   -2.9850 C   0  0  2  0  0  0  0  0  0  0  0  0
  -10.0871   32.0392   -1.5839 C   0  0  0  0  0  0  0  0  0  0  0  0
  -10.4983   32.7018   -0.4770 C   0  0  0  0  0  0  0  0  0  0  0  0
   -8.0568   29.3202   -5.3025 N   0  0  0  0  0  0  0  0  0  0  0  0
  1  2  1  1
  5  4  1  0
  6  3  1  0
  8  7  2  0
 10  2  2  0
 10  6  1  0
 11  1  1  0
 11  3  1  0
 12  5  1  0
 12  9  1  0
 14  4  2  0
 14  8  1  0
 16 13  1  0
 16 15  2  3
 17  1  1  0
 17  4  1  0
 17  7  1  1
 18 10  1  0
 19 16  1  0
 19 18  3  0
 20 11  2  3
M  END
>  <ID>  (1) 
conformer_0

$$$$
