
     RDKit          3D

 22 24  0  0  0  0  0  0  0  0999 V2000
   -9.6767   29.9409   -4.3690 C   0  0  0  0  0  0  0  0  0  0  0  0
  -10.6845   30.7199   -4.1020 C   0  0  0  0  0  0  0  0  0  0  0  0
   -7.6171   30.5291   -3.2505 C   0  0  0  0  0  0  0  0  0  0  0  0
   -3.2489   29.8894   -3.0687 C   0  0  0  0  0  0  0  0  0  0  0  0
   -8.6664   31.0341   -2.6627 C   0  0  0  0  0  0  0  0  0  0  0  0
   -5.1980   31.3784   -1.9648 N   0  0  0  0  0  0  0  0  0  0  0  0
   -5.6705   27.6726   -6.7832 C   0  0  0  0  0  0  0  0  0  0  0  0
   -8.1027   29.4553   -4.8872 C   0  0  0  0  0  0  0  0  0  0  0  0
   -6.6472   29.8657   -3.7731 C   0  0  0  0  0  0  0  0  0  0  0  0
  -12.5081   33.0319    0.3626 O   0  0  0  0  0  0  0  0  0  0  0  0
   -4.9531   30.3739   -3.1106 C   0  0  0  0  0  0  0  0  0  0  0  0
  -10.2323   31.3211   -2.7088 C   0  0  1  0  0  0  0  0  0  0  0  0
   -4.2577   28.1278   -6.8200 O   0  0  0  0  0  0  0  0  0  0  0  0
  -11.3082   33.0294    0.5468 C   0  0  0  0  0  0  0  0  0  0  0  0
  -10.8520   34.0391    0.9445 C   0  0  0  0  0  0  0  0  0  0  0  0
   -3.8578   28.5097   -5.3963 C   0  0  0  0  0  0  0  0  0  0  0  0
   -3.6669   31.0212   -1.6136 C   0  0  0  0  0  0  0  0  0  0  0  0
   -7.9221   29.3176   -5.3745 N   0  0  0  0  0  0  0  0  0  0  0  0
   -3.2528   28.6840   -4.7594 O   0  0  0  0  0  0  0  0  0  0  0  0
   -3.1242   30.6935   -1.3434 N   0  0  0  0  0  0  0  0  0  0  0  0
   -9.8209   31.9763   -1.5912 C   0  0  0  0  0  0  0  0  0  0  0  0
  -10.3245   32.2927   -0.4672 C   0  0  0  0  0  0  0  0  0  0  0  0
  2  1  1  0
  5  3  2  0
  8  1  1  0
  9  3  2  0
  9  8  1  0
 11  4  1  0
 11  6  2  0
 11  9  1  0
 12  2  1  6
 12  5  1  0
 13  7  1  0
 14 10  1  0
 15 14  1  0
 16 13  1  0
 17  4  1  0
 17  6  1  0
 18  8  2  3
 19  4  1  0
 19 16  1  0
 20 17  2  3
 21  5  1  0
 21 12  1  0
 22 14  2  0
 22 21  2  0
M  END
>  <ID>  (1) 
conformer_0

$$$$
