
     RDKit          3D

 24 25  0  0  0  0  0  0  0  0999 V2000
   -9.5616   29.7069   -3.9928 C   0  0  1  0  0  0  0  0  0  0  0  0
   -5.1164   30.5388   -2.8405 C   0  0  0  0  0  0  0  0  0  0  0  0
  -10.0472   31.8569   -1.3712 C   0  0  0  0  0  0  0  0  0  0  0  0
  -10.1227   31.5458   -2.2895 C   0  0  1  0  0  0  0  0  0  0  0  0
  -10.7083   32.8517    0.1011 C   0  0  0  0  0  0  0  0  0  0  0  0
  -11.5419   33.7636    1.9004 C   0  0  0  0  0  0  0  0  0  0  0  0
   -3.7601   28.6556   -5.7033 C   0  0  0  0  0  0  0  0  0  0  0  0
   -7.9584   29.5845   -4.2103 C   0  0  0  0  0  0  0  0  0  0  0  0
   -2.9659   30.4056   -1.9346 N   0  0  0  0  0  0  0  0  0  0  0  0
   -3.9247   31.3323   -1.4516 C   0  0  0  0  0  0  0  0  0  0  0  0
   -8.5440   30.8226   -2.7703 C   0  0  2  0  0  0  0  0  0  0  0  0
   -4.7130   28.0315   -7.6483 O   0  0  0  0  0  0  0  0  0  0  0  0
   -5.6361   27.5763   -8.1620 C   0  0  0  0  0  0  0  0  0  0  0  0
  -12.7114   33.0208    0.2274 O   0  0  0  0  0  0  0  0  0  0  0  0
   -3.2868   28.5055   -4.6161 O   0  0  0  0  0  0  0  0  0  0  0  0
  -11.3222   33.1216    0.3251 C   0  0  2  0  0  0  0  0  0  0  0  0
   -7.2348   30.2957   -3.6004 C   0  0  1  0  0  0  0  0  0  0  0  0
   -2.6870   29.9756   -2.4148 C   0  0  0  0  0  0  0  0  0  0  0  0
  -10.5104   30.7563   -3.7141 C   0  0  0  0  0  0  0  0  0  0  0  0
   -3.8804   31.9367   -0.2361 N   0  0  0  0  0  0  0  0  0  0  0  0
   -7.9135   29.0275   -5.1358 N   0  0  0  0  0  0  0  0  0  0  0  0
   -4.7602   30.5755   -3.1133 C   0  0  0  0  0  0  0  0  0  0  0  0
   -6.0070   29.4895   -4.3704 C   0  0  0  0  0  0  0  0  0  0  0  0
   -3.9135   29.6577   -3.8075 C   0  0  2  0  0  0  0  0  0  0  0  0
  4  3  1  1
  5  3  1  0
  8  1  1  0
 10  9  1  0
 11  1  1  0
 11  4  1  6
 12  7  1  0
 13 12  1  0
 15  7  1  0
 16  5  1  0
 16  6  1  1
 16 14  1  0
 17  8  1  0
 17 11  1  0
 18  9  2  3
  1 19  1  6
 19  4  1  0
 20 10  1  0
 21  8  2  3
 22  2  1  0
 23  2  1  0
 17 23  1  1
 24 15  1  0
 24 18  1  0
 24 22  1  1
M  END
>  <ID>  (1) 
conformer_0

$$$$
