
     RDKit          3D

 25 28  0  0  0  0  0  0  0  0999 V2000
   -9.7270   30.0255   -4.1852 C   0  0  0  0  0  0  0  0  0  0  0  0
  -10.0060   31.6589   -1.7588 C   0  0  1  0  0  0  0  0  0  0  0  0
  -10.2812   30.8148   -3.3568 C   0  0  1  0  0  0  0  0  0  0  0  0
   -5.3232   31.0303   -2.3378 C   0  0  0  0  0  0  0  0  0  0  0  0
   -8.7771   31.1083   -2.2439 C   0  0  1  0  0  0  0  0  0  0  0  0
   -7.8540   30.5104   -3.1433 C   0  0  0  0  0  0  0  0  0  0  0  0
   -4.5199   28.3464   -5.7076 C   0  0  0  0  0  0  0  0  0  0  0  0
   -6.6540   29.4631   -4.5369 C   0  0  0  0  0  0  0  0  0  0  0  0
   -2.9015   30.0745   -2.8712 N   0  0  0  0  0  0  0  0  0  0  0  0
  -11.3688   33.1100    0.3951 C   0  0  0  0  0  0  0  0  0  0  0  0
   -5.0118   27.8631   -7.7360 O   0  0  0  0  0  0  0  0  0  0  0  0
  -10.2827   32.5611   -0.7952 C   0  0  0  0  0  0  0  0  0  0  0  0
   -3.9381   31.5852   -0.8341 C   0  0  0  0  0  0  0  0  0  0  0  0
  -11.2677   33.2990    1.7261 C   0  0  0  0  0  0  0  0  0  0  0  0
   -5.4621   27.4222   -7.6805 C   0  0  0  0  0  0  0  0  0  0  0  0
   -7.7455   29.2342   -5.0507 N   0  0  0  0  0  0  0  0  0  0  0  0
   -4.8007   30.7228   -2.9958 C   0  0  2  0  0  0  0  0  0  0  0  0
  -12.5418   33.0577    0.0943 O   0  0  0  0  0  0  0  0  0  0  0  0
   -2.6294   30.2342   -1.7849 C   0  0  0  0  0  0  0  0  0  0  0  0
   -6.5054   30.2927   -3.7523 C   0  0  0  0  0  0  0  0  0  0  0  0
   -4.8638   31.5841   -1.5620 N   0  0  0  0  0  0  0  0  0  0  0  0
   -8.7891   29.6419   -4.5129 C   0  0  2  0  0  0  0  0  0  0  0  0
   -5.1494   29.0686   -4.8407 C   0  0  0  0  0  0  0  0  0  0  0  0
   -2.7874   30.7823   -0.8689 N   0  0  0  0  0  0  0  0  0  0  0  0
   -3.9994   30.2663   -3.2978 C   0  0  0  0  0  0  0  0  0  0  0  0
  3  1  1  1
  3  2  1  0
  5  2  1  0
  5  3  1  0
  5  6  1  6
 11  7  1  0
  2 12  1  6
 12 10  1  0
 14 10  2  3
 15 11  1  0
 16  8  2  0
 17  4  1  1
 18 10  1  0
 19  9  1  0
 20  6  2  0
 20  8  1  0
 20 17  1  0
 21  4  1  0
 21 13  2  0
 22  1  1  6
 22  6  1  0
 22 16  1  0
 23  7  1  0
 23  8  1  0
 24 13  1  0
 24 19  2  0
 25  9  1  0
 25 17  1  0
M  END
>  <ID>  (1) 
conformer_0

$$$$
