
     RDKit          3D

 23 23  0  0  0  0  0  0  0  0999 V2000
  -10.5875   30.8649   -3.4574 C   0  0  0  0  0  0  0  0  0  0  0  0
   -8.9466   30.8771   -2.6180 C   0  0  2  0  0  0  0  0  0  0  0  0
  -10.0850   30.0821   -4.3751 C   0  0  0  0  0  0  0  0  0  0  0  0
   -3.7412   29.8210   -3.5257 C   0  0  0  0  0  0  0  0  0  0  0  0
   -5.6708   27.5128   -7.1191 C   0  0  0  0  0  0  0  0  0  0  0  0
  -10.2173   32.2159   -0.6759 C   0  0  0  0  0  0  0  0  0  0  0  0
   -8.7122   29.8387   -4.3293 C   0  0  0  0  0  0  0  0  0  0  0  0
   -3.2133   30.1158   -3.0465 N   0  0  0  0  0  0  0  0  0  0  0  0
  -12.6477   33.2014    0.2679 O   0  0  0  0  0  0  0  0  0  0  0  0
   -4.9326   27.7803   -7.6464 O   0  0  0  0  0  0  0  0  0  0  0  0
  -10.7337   33.2487    1.0870 C   0  0  0  0  0  0  0  0  0  0  0  0
   -3.9474   31.8646   -0.2933 N   0  0  0  0  0  0  0  0  0  0  0  0
   -3.2006   28.1880   -4.7519 O   0  0  0  0  0  0  0  0  0  0  0  0
   -7.8483   29.1201   -5.1830 N   0  0  0  0  0  0  0  0  0  0  0  0
  -11.3564   33.1846    0.3545 C   0  0  0  0  0  0  0  0  0  0  0  0
   -3.8514   28.3766   -5.5434 C   0  0  0  0  0  0  0  0  0  0  0  0
   -3.7488   31.1193   -1.6193 C   0  0  0  0  0  0  0  0  0  0  0  0
   -9.9485   31.6348   -1.6395 C   0  0  0  0  0  0  0  0  0  0  0  0
   -5.4053   30.7543   -2.7464 C   0  0  0  0  0  0  0  0  0  0  0  0
   -4.5910   31.4025   -1.9994 N   0  0  0  0  0  0  0  0  0  0  0  0
   -7.5706   30.8143   -2.8816 C   0  0  0  0  0  0  0  0  0  0  0  0
   -6.7913   28.8547   -4.9858 C   0  0  0  0  0  0  0  0  0  0  0  0
   -6.6871   29.8375   -3.8361 C   0  0  1  0  0  0  0  0  0  0  0  0
  2  1  1  6
  3  1  1  0
  7  3  2  0
  8  4  2  3
 10  5  1  0
 13  4  1  0
 14  7  1  0
 15  6  1  0
 15  9  1  0
 15 11  2  3
 16 10  1  0
 16 13  1  0
 17  8  1  0
 17 12  2  3
 18  2  1  0
 18  6  2  3
 20 17  1  0
 20 19  1  0
 21  2  1  0
 22 14  1  0
 23 19  1  6
 23 21  1  0
 23 22  1  0
M  END
>  <ID>  (1) 
conformer_0

$$$$
