
     RDKit          3D

 24 24  0  0  0  0  0  0  0  0999 V2000
   -4.2506   29.9167   -3.7130 C   0  0  1  0  0  0  0  0  0  0  0  0
   -9.0093   29.9835   -3.7824 C   0  0  2  0  0  0  0  0  0  0  0  0
   -7.8003   30.8661   -2.8667 C   0  0  0  0  0  0  0  0  0  0  0  0
   -6.5907   29.9984   -3.7512 C   0  0  1  0  0  0  0  0  0  0  0  0
   -3.0456   28.9249   -5.5691 C   0  0  0  0  0  0  0  0  0  0  0  0
   -2.8525   30.0383   -2.6271 N   0  0  0  0  0  0  0  0  0  0  0  0
  -11.2488   34.2012    1.5135 C   0  0  0  0  0  0  0  0  0  0  0  0
   -7.9756   29.6957   -4.5308 C   0  0  0  0  0  0  0  0  0  0  0  0
  -11.8372   33.4714    1.4023 C   0  0  1  0  0  0  0  0  0  0  0  0
   -4.6973   28.3243   -5.5557 C   0  0  0  0  0  0  0  0  0  0  0  0
   -5.4263   30.6263   -2.7559 C   0  0  0  0  0  0  0  0  0  0  0  0
  -10.2254   30.5416   -3.8051 C   0  0  0  0  0  0  0  0  0  0  0  0
   -4.3397   28.0886   -7.3475 O   0  0  0  0  0  0  0  0  0  0  0  0
   -7.6893   29.0992   -5.4278 N   0  0  0  0  0  0  0  0  0  0  0  0
   -4.8339   31.3178   -1.7322 N   0  0  0  0  0  0  0  0  0  0  0  0
   -3.7824   31.7793   -0.1328 N   0  0  0  0  0  0  0  0  0  0  0  0
   -3.9151   31.1803   -1.3849 C   0  0  0  0  0  0  0  0  0  0  0  0
   -9.4633   31.4968   -2.2319 C   0  0  0  0  0  0  0  0  0  0  0  0
  -12.8982   32.8150    0.5543 O   0  0  0  0  0  0  0  0  0  0  0  0
   -2.7538   29.9629   -2.4893 C   0  0  0  0  0  0  0  0  0  0  0  0
   -5.5221   27.4033   -7.3437 C   0  0  0  0  0  0  0  0  0  0  0  0
  -10.2801   31.6010   -1.9671 C   0  0  0  0  0  0  0  0  0  0  0  0
  -10.5647   32.7483   -0.4132 C   0  0  0  0  0  0  0  0  0  0  0  0
  -11.1269   32.7199   -0.4349 C   0  0  0  0  0  0  0  0  0  0  0  0
  3  2  1  0
  4  3  1  0
  1  5  1  6
  6  1  1  0
  8  2  1  0
  8  4  1  0
  9  7  1  6
 10  5  1  0
 11  1  1  0
  4 11  1  6
  2 12  1  6
 13 10  1  0
 14  8  2  3
 15 11  1  0
 17 15  2  3
 17 16  1  0
 18  3  1  0
 19  9  1  0
 20  6  2  3
 21 13  1  0
 22 18  1  0
 23 22  1  0
 24  9  1  0
 24 23  1  0
M  END
>  <ID>  (1) 
conformer_0

$$$$
