
     RDKit          3D

 20 21  0  0  0  0  0  0  0  0999 V2000
  -10.7069   30.9376   -3.7623 C   0  0  0  0  0  0  0  0  0  0  0  0
  -10.3483   32.0698   -1.2429 C   0  0  0  0  0  0  0  0  0  0  0  0
   -3.1603   30.1700   -2.5837 C   0  0  0  0  0  0  0  0  0  0  0  0
   -4.7965   28.3577   -5.4808 C   0  0  0  0  0  0  0  0  0  0  0  0
   -9.8894   31.5383   -1.8983 C   0  0  0  0  0  0  0  0  0  0  0  0
  -10.8952   32.5601    0.6738 C   0  0  0  0  0  0  0  0  0  0  0  0
   -2.8643   30.8517   -1.2909 N   0  0  0  0  0  0  0  0  0  0  0  0
   -5.2386   30.3230   -3.0009 C   0  0  0  0  0  0  0  0  0  0  0  0
   -4.7802   27.7645   -7.6734 O   0  0  0  0  0  0  0  0  0  0  0  0
   -5.5444   31.3160   -1.7791 N   0  0  0  0  0  0  0  0  0  0  0  0
   -9.5130   30.5489   -3.4840 C   0  0  1  0  0  0  0  0  0  0  0  0
   -3.9758   31.8691    0.1176 N   0  0  0  0  0  0  0  0  0  0  0  0
   -8.2173   29.8639   -4.1441 C   0  0  2  0  0  0  0  0  0  0  0  0
   -5.5071   27.7144   -7.7341 C   0  0  0  0  0  0  0  0  0  0  0  0
  -11.6280   33.1394    0.3366 C   0  0  0  0  0  0  0  0  0  0  0  0
   -8.1250   30.7409   -2.8522 C   0  0  0  0  0  0  0  0  0  0  0  0
  -12.7870   33.1797   -0.0152 O   0  0  0  0  0  0  0  0  0  0  0  0
   -4.1401   31.0845   -1.4589 C   0  0  0  0  0  0  0  0  0  0  0  0
   -6.6187   29.8163   -4.0656 C   0  0  0  0  0  0  0  0  0  0  0  0
   -3.1593   30.0058   -3.2070 N   0  0  0  0  0  0  0  0  0  0  0  0
  5  2  1  0
  6  2  1  0
  7  3  1  0
  9  4  1  0
 10  8  1  0
 11  1  1  1
 11  5  1  0
 13 11  1  0
 14  9  1  0
 15  6  1  0
 16 11  1  0
 13 16  1  1
 17 15  1  0
 18  3  1  0
 18  7  1  0
 18 10  1  0
 18 12  1  0
 19  4  1  0
 19  8  2  3
 19 13  1  0
 20  3  2  3
M  END
>  <ID>  (1) 
conformer_0

$$$$
