
     RDKit          3D

 27 30  0  0  0  0  0  0  0  0999 V2000
   -8.9259   30.0318   -4.0017 C   0  0  2  0  0  0  0  0  0  0  0  0
  -10.2694   30.3317   -4.3458 C   0  0  0  0  0  0  0  0  0  0  0  0
   -9.3000   31.1675   -2.2004 C   0  0  0  0  0  0  0  0  0  0  0  0
   -3.7291   29.8084   -3.6217 C   0  0  0  0  0  0  0  0  0  0  0  0
  -10.5174   31.2373   -2.8421 C   0  0  2  0  0  0  0  0  0  0  0  0
   -4.5078   28.4478   -5.2698 C   0  0  0  0  0  0  0  0  0  0  0  0
   -2.8658   30.4436   -1.4972 N   0  0  0  0  0  0  0  0  0  0  0  0
   -6.8425   29.6251   -4.4410 C   0  0  2  0  0  0  0  0  0  0  0  0
   -7.7408   30.6197   -2.8637 C   0  0  2  0  0  0  0  0  0  0  0  0
   -3.9909   31.7072   -0.0388 N   0  0  0  0  0  0  0  0  0  0  0  0
   -4.8211   28.0115   -7.2912 O   0  0  0  0  0  0  0  0  0  0  0  0
  -11.5448   33.4431    0.7737 C   0  0  0  0  0  0  0  0  0  0  0  0
   -2.4349   29.8733   -2.2896 C   0  0  0  0  0  0  0  0  0  0  0  0
   -7.6089   29.3115   -5.4938 N   0  0  0  0  0  0  0  0  0  0  0  0
  -12.4012   33.9567    0.5773 O   0  0  0  0  0  0  0  0  0  0  0  0
   -6.5587   30.0579   -3.7399 C   0  0  0  0  0  0  0  0  0  0  0  0
   -4.8792   31.3502   -1.8775 N   0  0  0  0  0  0  0  0  0  0  0  0
   -4.5601   30.2399   -3.3783 C   0  0  0  0  0  0  0  0  0  0  0  0
   -3.4159   28.1804   -5.4334 O   0  0  0  0  0  0  0  0  0  0  0  0
   -5.0428   29.1284   -5.1074 N   0  0  0  0  0  0  0  0  0  0  0  0
   -3.8704   31.2500   -1.2457 C   0  0  0  0  0  0  0  0  0  0  0  0
  -10.4220   31.7284   -1.1733 C   0  0  2  0  0  0  0  0  0  0  0  0
   -5.5726   27.6324   -6.8182 C   0  0  0  0  0  0  0  0  0  0  0  0
   -8.8881   29.7447   -5.0995 C   0  0  0  0  0  0  0  0  0  0  0  0
  -10.5022   32.8537   -0.5167 C   0  0  0  0  0  0  0  0  0  0  0  0
   -5.3178   30.6963   -2.6660 C   0  0  0  0  0  0  0  0  0  0  0  0
  -11.0433   32.6058    1.2786 C   0  0  0  0  0  0  0  0  0  0  0  0
  1  2  1  6
  5  2  1  1
  5  3  1  0
  9  1  1  0
  9  3  1  0
 13  4  1  0
 13  7  1  0
 14  8  1  0
 15 12  1  0
 16  8  1  0
  9 16  1  6
 18  4  2  0
 19  6  2  0
 20  6  1  0
  8 20  1  6
 21  7  2  0
 21 10  1  0
 21 17  1  0
 22  3  1  0
 22  5  1  0
 23  6  1  0
 23 11  1  0
 24  1  1  0
 24 14  1  0
 25 12  1  0
 22 25  1  6
 26 16  1  0
 26 17  1  0
 26 18  2  0
 27 12  2  3
M  END
>  <ID>  (1) 
conformer_0

$$$$
