
     RDKit          3D

 24 25  0  0  0  0  0  0  0  0999 V2000
   -9.8458   30.0319   -4.2490 C   0  0  0  0  0  0  0  0  0  0  0  0
  -10.5529   32.4037   -0.8456 C   0  0  0  0  0  0  0  0  0  0  0  0
  -10.4743   30.8255   -3.3845 C   0  0  1  0  0  0  0  0  0  0  0  0
   -4.2296   31.2877   -1.5129 C   0  0  0  0  0  0  0  0  0  0  0  0
  -11.5477   33.5237    1.6872 C   0  0  0  0  0  0  0  0  0  0  0  0
  -10.0351   31.6552   -2.0695 C   0  0  0  0  0  0  0  0  0  0  0  0
   -8.7633   29.8861   -4.6930 C   0  0  0  0  0  0  0  0  0  0  0  0
   -4.5186   28.1298   -5.3107 C   0  0  0  0  0  0  0  0  0  0  0  0
   -3.4749   30.9833   -1.1730 N   0  0  0  0  0  0  0  0  0  0  0  0
   -8.7963   31.0992   -2.5656 C   0  0  0  0  0  0  0  0  0  0  0  0
   -4.7280   27.8339   -7.4402 O   0  0  0  0  0  0  0  0  0  0  0  0
   -4.7945   30.2021   -3.1854 C   0  0  0  0  0  0  0  0  0  0  0  0
   -7.6606   29.2807   -5.2169 N   0  0  0  0  0  0  0  0  0  0  0  0
  -11.7760   33.1521    0.2145 C   0  0  0  0  0  0  0  0  0  0  0  0
   -5.6204   27.5154   -7.5755 C   0  0  0  0  0  0  0  0  0  0  0  0
   -7.6673   30.5949   -3.1272 C   0  0  0  0  0  0  0  0  0  0  0  0
   -3.9182   32.0947   -0.2164 N   0  0  0  0  0  0  0  0  0  0  0  0
   -2.8344   30.0667   -2.4333 C   0  0  0  0  0  0  0  0  0  0  0  0
   -2.6924   30.0152   -3.9370 S   0  0  0  0  0  0  0  0  0  0  0  0
   -5.1197   28.5950   -5.0922 N   0  0  0  0  0  0  0  0  0  0  0  0
   -6.5127   29.9272   -3.8151 C   0  0  0  0  0  0  0  0  0  0  0  0
   -3.5045   29.9231   -2.9779 N   0  0  0  0  0  0  0  0  0  0  0  0
   -3.4768   28.0900   -5.8270 O   0  0  0  0  0  0  0  0  0  0  0  0
   -6.7570   29.2592   -4.6760 C   0  0  1  0  0  0  0  0  0  0  0  0
  3  1  1  1
  6  2  2  0
  6  3  1  0
  7  1  1  0
  9  4  2  3
 10  3  1  0
 10  6  1  0
 13  7  1  0
 14  2  2  0
 14  5  1  0
 15 11  1  0
 16 10  2  0
 17  4  1  0
 18  9  1  0
 20  8  1  0
 21 12  1  0
 21 16  2  0
 22 12  1  0
 22 18  1  0
 22 19  1  0
 23  8  1  0
 23 11  1  0
 24 13  1  0
 24 20  1  6
 24 21  1  0
M  END
>  <ID>  (1) 
conformer_0

$$$$
