
     RDKit          3D

 26 28  0  0  0  0  0  0  0  0999 V2000
   -4.0936   29.6204   -3.7271 C   0  0  0  0  0  0  0  0  0  0  0  0
   -6.8022   30.0650   -3.6827 C   0  0  0  0  0  0  0  0  0  0  0  0
   -8.0582   31.1510   -2.8182 C   0  0  0  0  0  0  0  0  0  0  0  0
   -9.2546   30.9238   -2.2932 C   0  0  0  0  0  0  0  0  0  0  0  0
   -4.9773   28.0296   -6.0630 C   0  0  0  0  0  0  0  0  0  0  0  0
   -8.8492   29.6413   -4.1449 C   0  0  0  0  0  0  0  0  0  0  0  0
   -7.2534   29.8451   -3.7870 C   0  0  0  0  0  0  0  0  0  0  0  0
   -5.2983   30.4196   -2.9546 C   0  0  0  0  0  0  0  0  0  0  0  0
   -5.6219   27.3604   -8.4531 C   0  0  0  0  0  0  0  0  0  0  0  0
  -11.2885   33.3525    0.5199 C   0  0  0  0  0  0  0  0  0  0  0  0
   -2.8823   30.4668   -1.8106 N   0  0  0  0  0  0  0  0  0  0  0  0
   -4.8457   27.6583   -7.7396 O   0  0  0  0  0  0  0  0  0  0  0  0
   -9.7408   32.4466   -1.3290 C   0  0  0  0  0  0  0  0  0  0  0  0
   -3.5308   28.7507   -4.7513 O   0  0  0  0  0  0  0  0  0  0  0  0
   -3.9755   31.9661   -0.4748 N   0  0  0  0  0  0  0  0  0  0  0  0
   -3.9646   31.1738   -1.6611 C   0  0  0  0  0  0  0  0  0  0  0  0
  -12.4316   33.0889   -0.4173 O   0  0  0  0  0  0  0  0  0  0  0  0
   -5.2481   31.0253   -2.0496 N   0  0  0  0  0  0  0  0  0  0  0  0
  -10.3395   32.0686   -0.5759 C   0  0  0  0  0  0  0  0  0  0  0  0
  -10.2777   30.2263   -4.0915 C   0  0  0  0  0  0  0  0  0  0  0  0
   -7.7096   29.2614   -5.4095 N   0  0  0  0  0  0  0  0  0  0  0  0
   -3.1098   28.5498   -5.4750 C   0  0  0  0  0  0  0  0  0  0  0  0
   -2.7953   29.8445   -2.8110 C   0  0  0  0  0  0  0  0  0  0  0  0
   -8.6484   29.4597   -5.1254 C   0  0  0  0  0  0  0  0  0  0  0  0
  -10.7109   32.7861    1.3125 C   0  0  0  0  0  0  0  0  0  0  0  0
  -10.3833   31.4707   -2.8994 C   0  0  0  0  0  0  0  0  0  0  0  0
  4  3  1  0
  7  2  1  0
  7  3  1  0
  7  6  1  0
  8  1  2  0
  8  2  1  0
 12  5  1  0
 12  9  1  0
 13  4  1  0
 14  1  1  0
 16 11  1  0
 16 15  1  0
 17 10  1  0
 18  8  1  0
 18 16  2  0
 19 10  1  0
 19 13  1  0
 20  6  1  0
 21  7  1  0
 22  5  1  0
 22 14  1  0
 23  1  1  0
 23 11  2  0
 24  6  2  0
 24 21  1  0
 25 10  1  0
 26  4  1  0
 26 20  1  0
M  END
>  <ID>  (1) 
conformer_0

$$$$
