
     RDKit          3D

 27 29  0  0  0  0  0  0  0  0999 V2000
   -9.4095   29.7044   -4.3224 C   0  0  0  0  0  0  0  0  0  0  0  0
  -10.2665   30.4892   -3.6653 C   0  0  0  0  0  0  0  0  0  0  0  0
   -5.4647   30.4860   -2.7818 C   0  0  0  0  0  0  0  0  0  0  0  0
   -5.0767   28.2646   -5.3339 C   0  0  0  0  0  0  0  0  0  0  0  0
  -10.3593   31.8253   -2.2432 C   0  0  0  0  0  0  0  0  0  0  0  0
   -6.7815   30.0248   -3.8406 C   0  0  0  0  0  0  0  0  0  0  0  0
   -9.4140   31.1831   -1.9437 C   0  0  0  0  0  0  0  0  0  0  0  0
   -7.4428   30.1110   -3.6281 C   0  0  0  0  0  0  0  0  0  0  0  0
   -2.7931   30.7509   -1.3377 N   0  0  0  0  0  0  0  0  0  0  0  0
   -4.8313   27.7623   -7.8668 O   0  0  0  0  0  0  0  0  0  0  0  0
   -4.0249   31.9145   -0.1989 N   0  0  0  0  0  0  0  0  0  0  0  0
  -12.6214   33.1639    0.3089 O   0  0  0  0  0  0  0  0  0  0  0  0
   -4.1137   31.3620   -1.3962 C   0  0  0  0  0  0  0  0  0  0  0  0
  -10.3120   32.0944   -0.6482 C   0  0  0  0  0  0  0  0  0  0  0  0
  -11.4559   33.3082    0.5483 C   0  0  0  0  0  0  0  0  0  0  0  0
   -3.7377   28.6727   -5.9575 C   0  0  0  0  0  0  0  0  0  0  0  0
   -4.0332   27.9160   -5.1728 O   0  0  0  0  0  0  0  0  0  0  0  0
   -8.2531   30.6257   -2.8933 C   0  0  0  0  0  0  0  0  0  0  0  0
   -2.8268   30.0641   -2.4897 C   0  0  0  0  0  0  0  0  0  0  0  0
   -3.2180   29.7495   -3.2728 N   0  0  0  0  0  0  0  0  0  0  0  0
   -7.3331   29.3154   -5.1665 N   0  0  0  0  0  0  0  0  0  0  0  0
  -11.4383   33.7701    1.9774 C   0  0  0  0  0  0  0  0  0  0  0  0
   -4.9601   31.2518   -1.9572 N   0  0  0  0  0  0  0  0  0  0  0  0
   -5.3557   27.7136   -7.8806 C   0  0  0  0  0  0  0  0  0  0  0  0
  -10.5334   33.6315    0.1113 C   0  0  0  0  0  0  0  0  0  0  0  0
   -4.4774   29.7692   -3.7664 C   0  0  0  0  0  0  0  0  0  0  0  0
   -8.4478   29.4701   -5.1260 C   0  0  0  0  0  0  0  0  0  0  0  0
  2  1  1  0
  5  2  1  0
  6  3  1  0
  7  5  1  0
  8  6  1  0
 13  9  2  0
 13 11  1  0
 14  5  1  0
 15 12  1  0
 16  4  1  0
 16 10  1  0
 17  4  1  0
 17 16  1  0
 18  7  2  0
 18  8  2  0
 19  9  1  0
 20 19  1  0
 21  6  1  0
 22 15  1  0
 23  3  1  0
 23 13  1  0
 24 10  1  0
 25 14  1  0
 25 15  1  0
 26  3  1  0
 26  4  1  0
 26 20  1  0
 27  1  1  0
 27 21  1  0
M  END
>  <ID>  (1) 
conformer_0

$$$$
