
     RDKit          3D

 23 23  0  0  0  0  0  0  0  0999 V2000
   -9.9676   29.8842   -4.4513 C   0  0  0  0  0  0  0  0  0  0  0  0
  -10.0349   31.7547   -1.7699 C   0  0  0  0  0  0  0  0  0  0  0  0
   -4.7294   30.1631   -3.4111 C   0  0  0  0  0  0  0  0  0  0  0  0
  -10.7164   30.8226   -3.8455 C   0  0  0  0  0  0  0  0  0  0  0  0
  -10.3195   32.2846   -0.8822 C   0  0  0  0  0  0  0  0  0  0  0  0
   -4.3544   28.5063   -5.4320 C   0  0  0  0  0  0  0  0  0  0  0  0
   -2.8092   30.1027   -2.4141 N   0  0  0  0  0  0  0  0  0  0  0  0
   -7.8991   29.8212   -4.2014 C   0  0  0  0  0  0  0  0  0  0  0  0
   -4.8248   28.0378   -7.3157 O   0  0  0  0  0  0  0  0  0  0  0  0
   -9.5438   31.0591   -2.7235 C   0  0  1  0  0  0  0  0  0  0  0  0
  -11.3049   33.4493    1.0495 C   0  0  0  0  0  0  0  0  0  0  0  0
   -5.5597   27.4327   -7.7796 C   0  0  0  0  0  0  0  0  0  0  0  0
   -8.1569   30.6862   -2.8999 C   0  0  2  0  0  0  0  0  0  0  0  0
   -4.0719   31.1409   -1.6213 C   0  0  0  0  0  0  0  0  0  0  0  0
  -12.5528   33.2871    0.3395 O   0  0  0  0  0  0  0  0  0  0  0  0
   -3.9995   31.8590   -0.1823 N   0  0  0  0  0  0  0  0  0  0  0  0
   -7.6061   29.3862   -4.9004 N   0  0  0  0  0  0  0  0  0  0  0  0
  -10.9937   32.6780    1.2025 C   0  0  0  0  0  0  0  0  0  0  0  0
   -4.3946   31.2121   -1.8987 N   0  0  0  0  0  0  0  0  0  0  0  0
   -2.8356   29.8718   -2.7988 C   0  0  0  0  0  0  0  0  0  0  0  0
   -6.6181   30.2050   -3.6122 C   0  0  0  0  0  0  0  0  0  0  0  0
   -5.0396   30.2045   -3.5044 C   0  0  0  0  0  0  0  0  0  0  0  0
   -5.1505   28.1997   -5.0766 C   0  0  0  0  0  0  0  0  0  0  0  0
  4  1  1  0
  5  2  3  0
  9  6  1  0
 10  2  1  6
 10  4  1  0
 12  9  1  0
 13  8  1  1
 13 10  1  0
 14  7  1  0
 15 11  1  0
 16 14  2  3
 17  8  1  0
 18  5  1  0
 18 11  1  0
 19  3  1  0
 19 14  1  0
 20  6  1  0
 20  7  1  0
 21  8  1  0
 21 13  1  0
 22  3  2  0
 22 21  2  0
 23  6  2  3
M  END
>  <ID>  (1) 
conformer_0

$$$$
