
     RDKit          3D

 25 27  0  0  0  0  0  0  0  0999 V2000
   -9.9045   29.8051   -4.0912 C   0  0  1  0  0  0  0  0  0  0  0  0
   -4.2463   29.7464   -3.8683 C   0  0  0  0  0  0  0  0  0  0  0  0
  -10.6063   31.1519   -3.8371 C   0  0  0  0  0  0  0  0  0  0  0  0
   -9.2264   31.7883   -2.2454 C   0  0  0  0  0  0  0  0  0  0  0  0
  -10.4366   31.9020   -1.3995 C   0  0  0  0  0  0  0  0  0  0  0  0
   -3.9763   28.4195   -5.5134 C   0  0  0  0  0  0  0  0  0  0  0  0
   -4.8288   31.2548   -1.9853 N   0  0  0  0  0  0  0  0  0  0  0  0
  -10.5974   32.6394   -0.0452 C   0  0  0  0  0  0  0  0  0  0  0  0
   -8.8132   29.7613   -4.3853 C   0  0  0  0  0  0  0  0  0  0  0  0
   -4.7000   27.7972   -7.6482 O   0  0  0  0  0  0  0  0  0  0  0  0
   -3.7883   31.7032   -0.2158 N   0  0  0  0  0  0  0  0  0  0  0  0
  -11.1634   33.6403    1.9000 C   0  0  0  0  0  0  0  0  0  0  0  0
   -5.2727   30.5518   -2.9744 C   0  0  0  0  0  0  0  0  0  0  0  0
  -11.4878   33.1098    0.5526 C   0  0  0  0  0  0  0  0  0  0  0  0
  -12.6929   33.1476    0.2281 O   0  0  0  0  0  0  0  0  0  0  0  0
   -7.8761   29.2520   -4.9948 N   0  0  0  0  0  0  0  0  0  0  0  0
   -9.7016   30.6373   -2.4694 C   0  0  2  0  0  0  0  0  0  0  0  0
   -2.9964   29.9163   -2.5687 N   0  0  0  0  0  0  0  0  0  0  0  0
   -7.9208   30.4553   -3.2138 C   0  0  0  0  0  0  0  0  0  0  0  0
   -5.4659   27.7560   -7.2454 C   0  0  0  0  0  0  0  0  0  0  0  0
   -6.9884   30.4223   -3.2916 C   0  0  0  0  0  0  0  0  0  0  0  0
   -3.7978   31.1858   -1.4574 C   0  0  0  0  0  0  0  0  0  0  0  0
   -6.7368   29.0953   -4.6877 C   0  0  0  0  0  0  0  0  0  0  0  0
   -5.7391   28.6396   -4.7295 C   0  0  0  0  0  0  0  0  0  0  0  0
   -2.8324   29.9650   -2.7382 C   0  0  0  0  0  0  0  0  0  0  0  0
  1  3  1  6
  5  4  1  0
  8  5  1  0
  9  1  1  0
 13  2  2  0
 13  7  1  0
 14  8  2  3
 14 12  1  0
 15 14  1  0
 16  9  2  0
 17  1  1  0
 17  3  1  0
 17  4  1  6
 19  9  1  0
 20  6  1  0
 20 10  1  0
 21 13  1  0
 21 19  1  0
 22  7  2  0
 22 11  1  0
 22 18  1  0
 23 16  1  0
 23 21  2  0
 24  6  1  0
 24 23  1  0
 25  2  1  0
 25 18  1  0
M  END
>  <ID>  (1) 
conformer_0

$$$$
