
     RDKit          3D

 23 24  0  0  0  0  0  0  0  0999 V2000
   -6.9622   30.0266   -3.6745 C   0  0  0  0  0  0  0  0  0  0  0  0
   -7.8158   30.6579   -3.0096 C   0  0  0  0  0  0  0  0  0  0  0  0
   -9.5553   30.0200   -4.2025 C   0  0  0  0  0  0  0  0  0  0  0  0
   -5.3538   30.6653   -2.7867 C   0  0  0  0  0  0  0  0  0  0  0  0
  -10.3639   30.8261   -3.7536 C   0  0  0  0  0  0  0  0  0  0  0  0
   -5.1976   31.4486   -1.8216 N   0  0  0  0  0  0  0  0  0  0  0  0
   -5.7041   28.5080   -5.2987 C   0  0  1  0  0  0  0  0  0  0  0  0
  -11.2335   33.3040    1.6687 C   0  0  0  0  0  0  0  0  0  0  0  0
   -8.1239   29.5176   -4.6487 C   0  0  1  0  0  0  0  0  0  0  0  0
   -5.3077   28.0023   -7.8794 O   0  0  0  0  0  0  0  0  0  0  0  0
   -4.0708   28.6294   -4.9394 O   0  0  0  0  0  0  0  0  0  0  0  0
   -7.5165   29.0419   -5.4356 N   0  0  0  0  0  0  0  0  0  0  0  0
   -9.2623   31.2168   -2.3667 C   0  0  0  0  0  0  0  0  0  0  0  0
  -10.1598   31.7500   -1.6850 C   0  0  0  0  0  0  0  0  0  0  0  0
  -11.7913   33.2054    0.7724 C   0  0  0  0  0  0  0  0  0  0  0  0
   -3.6235   31.0909   -1.3069 C   0  0  0  0  0  0  0  0  0  0  0  0
   -5.7955   27.6079   -7.7726 C   0  0  0  0  0  0  0  0  0  0  0  0
   -3.7958   29.9097   -3.2696 C   0  0  0  0  0  0  0  0  0  0  0  0
  -12.8382   33.0816    0.1575 O   0  0  0  0  0  0  0  0  0  0  0  0
   -3.4423   30.0810   -3.2052 C   0  0  0  0  0  0  0  0  0  0  0  0
   -3.5637   28.7254   -5.6727 C   0  0  0  0  0  0  0  0  0  0  0  0
  -10.6447   32.3089   -0.3056 C   0  0  0  0  0  0  0  0  0  0  0  0
   -3.3496   31.1253   -1.7339 N   0  0  0  0  0  0  0  0  0  0  0  0
  2  1  2  0
  4  1  1  0
  5  3  1  0
  6  4  2  0
  9  1  1  0
  9  3  1  0
 11  7  1  0
 12  7  1  0
  9 12  1  6
 13  2  2  0
 13  5  1  0
 14 13  1  0
 15  8  2  3
 16  6  1  0
  7 17  1  6
 17 10  1  0
 18  4  1  0
 19 15  1  0
 20 18  2  0
 21 11  1  0
 22 14  2  3
 22 15  1  0
 23 16  2  0
 23 20  1  0
M  END
>  <ID>  (1) 
conformer_0

$$$$
