
     RDKit          3D

 26 27  0  0  0  0  0  0  0  0999 V2000
  -10.6186   30.6448   -3.9823 C   0  0  0  0  0  0  0  0  0  0  0  0
   -9.1714   29.8836   -3.9670 C   0  0  0  0  0  0  0  0  0  0  0  0
   -3.6482   29.3740   -4.1574 C   0  0  0  0  0  0  0  0  0  0  0  0
   -8.3407   30.8213   -2.6702 C   0  0  0  0  0  0  0  0  0  0  0  0
   -6.7632   30.0150   -3.9584 C   0  0  0  0  0  0  0  0  0  0  0  0
   -7.1941   30.1566   -3.8215 C   0  0  0  0  0  0  0  0  0  0  0  0
   -3.1081   30.7728   -1.6510 N   0  0  0  0  0  0  0  0  0  0  0  0
   -3.8826   28.5288   -5.6967 C   0  0  0  0  0  0  0  0  0  0  0  0
   -4.0002   31.3563   -1.6842 C   0  0  0  0  0  0  0  0  0  0  0  0
  -12.6112   33.1263    0.4674 O   0  0  0  0  0  0  0  0  0  0  0  0
   -4.1749   31.9392   -0.8646 N   0  0  0  0  0  0  0  0  0  0  0  0
   -5.0210   30.3985   -3.3096 C   0  0  0  0  0  0  0  0  0  0  0  0
   -3.5237   28.0558   -4.8598 O   0  0  0  0  0  0  0  0  0  0  0  0
   -5.7230   27.6581   -7.6605 C   0  0  0  0  0  0  0  0  0  0  0  0
  -10.2671   31.3795   -2.7244 C   0  0  0  0  0  0  0  0  0  0  0  0
  -11.4652   33.0426    0.7010 C   0  0  0  0  0  0  0  0  0  0  0  0
   -4.7412   27.9645   -6.8211 O   0  0  0  0  0  0  0  0  0  0  0  0
  -10.6793   32.2324    1.8455 C   0  0  0  0  0  0  0  0  0  0  0  0
   -2.6066   29.8369   -2.5099 C   0  0  0  0  0  0  0  0  0  0  0  0
   -7.8739   29.7261   -5.2437 N   0  0  0  0  0  0  0  0  0  0  0  0
  -11.0578   34.2241    0.6154 C   0  0  0  0  0  0  0  0  0  0  0  0
   -9.8703   31.6348   -1.4538 C   0  0  0  0  0  0  0  0  0  0  0  0
   -8.7584   29.9638   -4.8496 C   0  0  0  0  0  0  0  0  0  0  0  0
  -10.4275   32.2693   -0.6666 C   0  0  0  0  0  0  0  0  0  0  0  0
   -2.6361   29.7353   -3.2195 N   0  0  0  0  0  0  0  0  0  0  0  0
   -4.7777   30.3562   -3.1450 C   0  0  0  0  0  0  0  0  0  0  0  0
  2  1  1  0
  4  2  1  0
  6  4  1  0
  6  5  1  0
  9  7  2  0
 11  9  1  0
 12  5  2  0
 13  3  1  0
 13  8  1  0
 15  1  1  0
 16 10  1  0
 17  8  1  0
 17 14  1  0
 18 16  1  0
 19  7  1  0
 20  6  1  0
 21 16  1  0
 22 15  1  0
 23  2  1  0
 23 20  1  0
 24 16  1  0
 24 22  1  0
 25  3  2  0
 25 19  1  0
 26  3  1  0
 26  9  1  0
 26 12  2  0
M  END
>  <ID>  (1) 
conformer_0

$$$$
