
     RDKit          3D

 25 27  0  0  0  0  0  0  0  0999 V2000
   -4.3580   29.6407   -3.8926 C   0  0  0  0  0  0  0  0  0  0  0  0
  -10.1548   31.5731   -1.8558 C   0  0  0  0  0  0  0  0  0  0  0  0
   -9.6270   29.8527   -4.1138 C   0  0  0  0  0  0  0  0  0  0  0  0
  -10.4887   30.8415   -3.5198 C   0  0  0  0  0  0  0  0  0  0  0  0
   -3.7875   28.5095   -5.5066 C   0  0  0  0  0  0  0  0  0  0  0  0
   -8.9159   29.8584   -4.5077 C   0  0  0  0  0  0  0  0  0  0  0  0
   -2.8687   30.2528   -2.7784 N   0  0  0  0  0  0  0  0  0  0  0  0
  -10.5350   32.4413   -0.7050 C   0  0  0  0  0  0  0  0  0  0  0  0
  -11.4414   33.6213    1.7634 C   0  0  0  0  0  0  0  0  0  0  0  0
  -12.7704   32.9926    0.2963 O   0  0  0  0  0  0  0  0  0  0  0  0
  -11.2864   33.0903    0.4813 C   0  0  0  0  0  0  0  0  0  0  0  0
   -3.7943   31.2215   -1.4431 C   0  0  0  0  0  0  0  0  0  0  0  0
   -9.0963   31.0931   -2.3941 C   0  0  0  0  0  0  0  0  0  0  0  0
   -4.5084   28.2113   -7.5312 O   0  0  0  0  0  0  0  0  0  0  0  0
   -4.7853   31.2235   -1.8276 N   0  0  0  0  0  0  0  0  0  0  0  0
   -5.1454   27.8435   -7.0886 C   0  0  0  0  0  0  0  0  0  0  0  0
   -7.9302   29.4693   -5.0965 N   0  0  0  0  0  0  0  0  0  0  0  0
   -5.3517   30.5608   -2.8407 C   0  0  0  0  0  0  0  0  0  0  0  0
   -3.8543   31.8453   -0.2021 N   0  0  0  0  0  0  0  0  0  0  0  0
   -7.7804   30.5138   -3.0782 C   0  0  0  0  0  0  0  0  0  0  0  0
   -3.9303   29.0675   -4.5226 N   0  0  0  0  0  0  0  0  0  0  0  0
   -6.6095   29.9080   -3.7348 C   0  0  0  0  0  0  0  0  0  0  0  0
   -6.8911   29.2724   -4.5608 C   0  0  0  0  0  0  0  0  0  0  0  0
   -5.4599   27.9923   -5.5536 C   0  0  0  0  0  0  0  0  0  0  0  0
   -2.8941   29.9260   -2.8861 C   0  0  0  0  0  0  0  0  0  0  0  0
  4  3  1  0
  6  3  1  0
  8  2  2  0
 11  8  2  0
 11  9  1  0
 11 10  1  0
 12  7  2  0
 13  2  1  0
 13  4  1  0
 15 12  1  0
 16 14  2  0
 17  6  2  0
 18  1  2  0
 18 15  1  0
 19 12  1  0
 20  6  1  0
 20 13  1  0
 21  1  1  0
 21  5  1  0
 22 18  1  0
 22 20  1  0
 23 17  1  0
 23 22  2  0
 24  5  1  0
 24 16  1  0
 25  1  1  0
 25  7  1  0
M  END
>  <ID>  (1) 
conformer_0

$$$$
