
     RDKit          3D

 29 32  0  0  0  0  0  0  0  0999 V2000
   -2.5829   29.8343   -2.3960 C   0  0  0  0  0  0  0  0  0  0  0  0
   -9.8621   32.6467   -1.7453 C   0  0  0  0  0  0  0  0  0  0  0  0
  -10.0101   29.5978   -4.5031 C   0  0  0  0  0  0  0  0  0  0  0  0
  -10.2967   31.9444   -0.6571 C   0  0  0  0  0  0  0  0  0  0  0  0
  -10.7358   30.9497   -3.9858 C   0  0  0  0  0  0  0  0  0  0  0  0
   -8.5931   29.6687   -4.4765 C   0  0  0  0  0  0  0  0  0  0  0  0
  -11.4737   33.1751    2.3143 C   0  0  0  0  0  0  0  0  0  0  0  0
   -4.1207   29.8333   -3.6111 C   0  0  0  0  0  0  0  0  0  0  0  0
   -6.8843   29.6125   -4.0960 C   0  0  0  0  0  0  0  0  0  0  0  0
   -2.8152   30.3859   -1.3349 N   0  0  0  0  0  0  0  0  0  0  0  0
   -4.6517   27.8740   -7.7832 O   0  0  0  0  0  0  0  0  0  0  0  0
  -12.5281   33.1028    0.1883 O   0  0  0  0  0  0  0  0  0  0  0  0
  -11.2577   33.1592    0.4991 C   0  0  0  0  0  0  0  0  0  0  0  0
   -5.5570   27.3949   -8.4377 C   0  0  0  0  0  0  0  0  0  0  0  0
   -5.0539   28.9222   -5.1618 C   0  0  0  0  0  0  0  0  0  0  0  0
   -3.9678   31.6923   -0.1681 N   0  0  0  0  0  0  0  0  0  0  0  0
  -10.3029   31.2278   -2.4283 C   0  0  0  0  0  0  0  0  0  0  0  0
   -7.5508   29.2789   -4.8261 N   0  0  0  0  0  0  0  0  0  0  0  0
   -5.1759   31.2758   -1.9257 N   0  0  0  0  0  0  0  0  0  0  0  0
   -3.9026   31.0625   -1.4250 C   0  0  0  0  0  0  0  0  0  0  0  0
   -9.0537   30.4287   -3.3560 C   0  0  0  0  0  0  0  0  0  0  0  0
   -5.1639   30.5219   -2.8562 C   0  0  0  0  0  0  0  0  0  0  0  0
   -3.6008   27.9445   -5.3978 O   0  0  0  0  0  0  0  0  0  0  0  0
   -3.6190   28.6137   -5.6609 C   0  0  0  0  0  0  0  0  0  0  0  0
   -2.9706   29.4512   -3.2544 N   0  0  0  0  0  0  0  0  0  0  0  0
   -8.5037   31.3385   -2.4672 C   0  0  0  0  0  0  0  0  0  0  0  0
   -5.6301   27.9665   -6.2167 C   0  0  0  0  0  0  0  0  0  0  0  0
   -6.8555   30.4039   -3.5766 C   0  0  0  0  0  0  0  0  0  0  0  0
  -10.7438   33.7028    0.5323 C   0  0  0  0  0  0  0  0  0  0  0  0
  4  2  1  0
  5  3  1  0
  6  3  1  0
 10  1  1  0
 13  4  1  0
 13  7  1  0
 13 12  1  0
 14 11  1  0
 15  8  1  0
 17  2  1  0
 17  5  1  0
 18  6  1  0
 18  9  1  0
 20 10  2  0
 20 16  1  0
 20 19  1  0
 21  3  1  0
 21  6  1  0
 21 17  1  0
 22  8  1  0
 22 19  1  0
 24 15  1  0
 24 23  1  0
 25  1  1  0
 25  8  1  0
 26 17  1  0
 26 21  1  0
 27 11  1  0
 27 15  1  0
 28  9  1  0
 28 22  1  0
 29 13  1  0
M  END
>  <ID>  (1) 
conformer_0

$$$$
