
     RDKit          3D

 25 27  0  0  0  0  0  0  0  0999 V2000
   -7.4433   30.6225   -3.2191 C   0  0  0  0  0  0  0  0  0  0  0  0
   -8.5749   30.9526   -2.6171 C   0  0  0  0  0  3  0  0  0  0  0  0
   -9.5535   29.9313   -4.1985 C   0  0  0  0  0  0  0  0  0  0  0  0
   -5.1538   30.3309   -3.3125 C   0  0  0  0  0  0  0  0  0  0  0  0
   -2.8271   28.5589   -5.1116 C   0  0  0  0  0  0  0  0  0  0  0  0
  -10.3904   31.5343   -2.4863 C   0  0  0  0  0  0  0  0  0  0  0  0
   -9.8496   31.7082   -1.4355 C   0  0  0  0  0  0  0  0  0  0  0  0
   -7.3641   29.7371   -4.4446 C   0  0  0  0  0  0  0  0  0  0  0  0
   -5.6359   27.2752   -7.8242 C   0  0  0  0  0  0  0  0  0  0  0  0
  -11.3812   33.7727    1.4904 C   0  0  0  0  0  0  0  0  0  0  0  0
   -2.6925   30.4347   -1.4597 N   0  0  0  0  0  0  0  0  0  0  0  0
   -3.8401   31.8985   -0.2729 N   0  0  0  0  0  0  0  0  0  0  0  0
   -3.8170   31.1202   -1.5345 C   0  0  0  0  0  0  0  0  0  0  0  0
   -4.4463   27.9131   -6.8638 O   0  0  0  0  0  0  0  0  0  0  0  0
   -7.8676   29.0746   -5.6168 N   0  0  0  0  0  0  0  0  0  0  0  0
  -12.9052   33.0182    0.4172 O   0  0  0  0  0  0  0  0  0  0  0  0
  -11.5926   33.1014    0.6067 C   0  0  0  0  0  0  0  0  0  0  0  0
  -10.5946   30.7811   -3.8876 C   0  0  0  0  0  0  0  0  0  0  0  0
   -3.2771   29.8308   -3.1800 C   0  0  0  0  0  3  0  0  0  0  0  0
   -4.8504   31.3209   -2.3899 N   0  0  0  0  0  0  0  0  0  0  0  0
   -6.4334   29.8240   -4.0921 C   0  0  0  0  0  3  0  0  0  0  0  0
  -10.6236   32.4858   -0.1774 C   0  0  0  0  0  0  0  0  0  0  0  0
   -4.4871   28.0403   -5.8588 C   0  0  0  0  0  0  0  0  0  0  0  0
   -3.3629   29.8815   -3.3251 N   0  0  0  0  0  0  0  0  0  0  0  0
   -9.0279   29.4230   -5.0516 C   0  0  0  0  0  0  0  0  0  0  0  0
  2  1  2  0
  7  2  1  0
  7  6  1  0
  8  1  1  0
 13 11  2  0
 13 12  1  0
 14  9  1  0
 15  8  1  0
 17 10  1  0
 17 16  1  0
 18  3  1  0
 18  6  1  0
 19  5  1  0
 19 11  1  0
 20  4  1  0
 20 13  1  0
 21  4  2  3
 21  8  1  0
 22  7  2  0
 22 17  2  0
 23  5  1  0
 23 14  1  0
 24  4  1  0
 24 19  1  0
 25  3  1  0
 25  8  1  0
 25 15  1  0
M  RAD  3   2   2  19   2  21   2
M  END
>  <ID>  (1) 
conformer_0

$$$$
