
     RDKit          3D

 22 23  0  0  0  0  0  0  0  0999 V2000
  -10.4104   30.8570   -3.5871 C   0  0  0  0  0  0  0  0  0  0  0  0
   -6.9459   29.6518   -3.8226 C   0  0  2  0  0  0  0  0  0  0  0  0
  -10.0999   31.8796   -1.8795 C   0  0  0  0  0  0  0  0  0  0  0  0
   -5.0445   30.4459   -3.0440 C   0  0  2  0  0  0  0  0  0  0  0  0
  -10.4929   32.1998   -0.8471 C   0  0  0  0  0  0  0  0  0  0  0  0
   -4.0320   28.7627   -5.4166 C   0  0  0  0  0  0  0  0  0  0  0  0
   -8.1774   29.4185   -4.6763 C   0  0  0  0  0  0  0  0  0  0  0  0
   -2.7917   30.3381   -1.9051 N   0  0  0  0  0  0  0  0  0  0  0  0
   -3.1342   30.0991   -2.7882 C   0  0  2  0  0  0  0  0  0  0  0  0
   -4.9431   27.9521   -7.4012 O   0  0  0  0  0  0  0  0  0  0  0  0
   -9.6247   29.8810   -4.1964 C   0  0  0  0  0  0  0  0  0  0  0  0
   -4.0367   32.1023    0.0015 N   0  0  0  0  0  0  0  0  0  0  0  0
  -11.8142   33.2071    0.9070 C   0  0  0  0  0  0  0  0  0  0  0  0
   -5.7411   27.6092   -6.9577 C   0  0  0  0  0  0  0  0  0  0  0  0
  -12.9873   33.0748    0.7994 O   0  0  0  0  0  0  0  0  0  0  0  0
   -9.0173   31.1446   -2.5177 C   0  0  2  0  0  0  0  0  0  0  0  0
   -7.6168   30.7612   -2.8850 C   0  0  0  0  0  0  0  0  0  0  0  0
   -7.8685   29.1040   -5.3736 N   0  0  0  0  0  0  0  0  0  0  0  0
   -4.8013   31.4594   -1.7870 N   0  0  0  0  0  0  0  0  0  0  0  0
   -3.9578   31.2043   -1.3974 C   0  0  0  0  0  0  0  0  0  0  0  0
  -11.1473   33.3750    0.4631 C   0  0  0  0  0  0  0  0  0  0  0  0
   -3.9068   28.4616   -5.5642 O   0  0  0  0  0  0  0  0  0  0  0  0
  4  2  1  0
  5  3  2  0
  7  2  1  0
  9  4  1  0
  9  6  1  1
  9  8  1  0
 11  1  1  0
 11  7  1  0
 14 10  1  0
 15 13  1  0
 16  1  1  0
 16  3  1  6
  2 17  1  1
 17 16  1  0
 18  7  2  3
  4 19  1  1
 20  8  2  0
 20 12  1  0
 20 19  1  0
 21  5  2  0
 21 13  1  0
 22  6  1  0
 22 10  1  0
M  END
>  <ID>  (1) 
conformer_0

$$$$
