
     RDKit          3D

 20 21  0  0  0  0  0  0  0  0999 V2000
   -9.1307   31.1947   -2.3399 C   0  0  0  0  0  0  0  0  0  0  0  0
  -10.6023   30.8470   -3.5281 C   0  0  0  0  0  0  0  0  0  0  0  0
  -10.1684   31.7110   -1.8333 C   0  0  0  0  0  0  0  0  0  0  0  0
   -3.3368   29.7230   -3.2743 C   0  0  0  0  0  0  0  0  0  0  0  0
  -10.2505   32.5156   -0.7525 C   0  0  0  0  0  0  0  0  0  0  0  0
   -4.2704   28.4642   -5.4104 C   0  0  0  0  0  0  0  0  0  0  0  0
  -10.8880   33.6595    0.8986 C   0  0  0  0  0  0  0  0  0  0  0  0
   -2.9101   30.5775   -1.9607 N   0  0  0  0  0  0  0  0  0  0  0  0
   -5.0372   30.2271   -3.2825 C   0  0  0  0  0  0  0  0  0  0  0  0
  -12.6311   32.9182    0.1703 O   0  0  0  0  0  0  0  0  0  0  0  0
   -4.5104   28.0902   -7.3148 O   0  0  0  0  0  0  0  0  0  0  0  0
   -7.8860   30.6611   -2.9987 C   0  0  0  0  0  0  0  0  0  0  0  0
   -5.7016   27.6205   -7.4324 C   0  0  0  0  0  0  0  0  0  0  0  0
  -11.2758   33.0145    0.3018 C   0  0  0  0  0  0  0  0  0  0  0  0
   -7.9230   29.7130   -4.3938 C   0  0  0  0  0  0  0  0  0  0  0  0
   -9.6061   30.0592   -3.8956 C   0  0  0  0  0  0  0  0  0  0  0  0
   -3.7342   30.9072   -1.7669 C   0  0  0  0  0  0  0  0  0  0  0  0
   -3.3635   28.3554   -5.2399 O   0  0  0  0  0  0  0  0  0  0  0  0
   -5.0214   31.2307   -1.9557 N   0  0  0  0  0  0  0  0  0  0  0  0
   -6.8649   29.9767   -3.8829 C   0  0  0  0  0  0  0  0  0  0  0  0
  2  1  1  0
  3  1  1  0
  5  3  2  3
  8  4  2  0
  9  4  1  0
 11  6  1  0
 12  1  2  0
 13 11  1  0
 14  5  1  0
 14  7  2  3
 14 10  1  0
 16  2  1  0
 16 15  1  0
 17  8  1  0
 18  4  1  0
 18  6  1  0
 19  9  2  0
 19 17  1  0
 20  9  1  0
 20 12  2  0
 20 15  1  0
M  END
>  <ID>  (1) 
conformer_0

$$$$
