
     RDKit          3D

 24 26  0  0  0  0  0  0  0  0999 V2000
   -3.9641   31.1939   -1.2858 C   0  0  0  0  0  0  0  0  0  0  0  0
   -8.2011   30.8557   -2.7296 C   0  0  0  0  0  0  0  0  0  0  0  0
   -9.6836   30.8159   -3.0043 C   0  0  1  0  0  0  0  0  0  0  0  0
  -10.8743   31.0391   -3.9300 C   0  0  0  0  0  0  0  0  0  0  0  0
   -9.7736   29.9366   -4.4335 C   0  0  1  0  0  0  0  0  0  0  0  0
   -7.8498   29.6375   -4.4672 C   0  0  0  0  0  0  0  0  0  0  0  0
   -4.8538   28.3069   -5.8049 C   0  0  0  0  0  0  0  0  0  0  0  0
   -5.3405   30.6117   -2.7204 C   0  0  0  0  0  0  0  0  0  0  0  0
   -3.8564   31.7851   -0.0444 N   0  0  0  0  0  0  0  0  0  0  0  0
   -7.5420   29.1429   -5.3437 N   0  0  0  0  0  0  0  0  0  0  0  0
   -4.3189   28.0362   -7.4177 O   0  0  0  0  0  0  0  0  0  0  0  0
   -7.0902   30.2410   -3.5194 C   0  0  0  0  0  0  0  0  0  0  0  0
   -9.9211   31.6185   -1.6420 C   0  0  0  0  0  0  0  0  0  0  0  0
   -4.9564   29.0271   -4.9840 C   0  0  0  0  0  0  0  0  0  0  0  0
  -11.5940   33.0360    0.6976 C   0  0  0  0  0  0  0  0  0  0  0  0
  -12.8908   32.9248    0.4234 O   0  0  0  0  0  0  0  0  0  0  0  0
   -2.9332   30.3599   -1.9371 N   0  0  0  0  0  0  0  0  0  0  0  0
   -2.9147   30.1026   -2.4143 C   0  0  0  0  0  0  0  0  0  0  0  0
   -5.6310   27.5062   -8.0112 C   0  0  0  0  0  0  0  0  0  0  0  0
  -10.4876   32.0821   -1.1161 C   0  0  0  0  0  0  0  0  0  0  0  0
   -2.7641   29.7805   -3.8774 S   0  0  0  0  0  0  0  0  0  0  0  0
   -4.8959   31.4472   -1.9426 N   0  0  0  0  0  0  0  0  0  0  0  0
   -4.3449   29.7576   -3.7927 C   0  0  0  0  0  0  0  0  0  0  0  0
  -10.9736   32.9208    0.8595 C   0  0  0  0  0  0  0  0  0  0  0  0
  3  2  1  0
  3  4  1  6
  5  3  1  0
  5  4  1  6
  6  5  1  0
  9  1  1  0
 10  6  2  3
 11  7  1  0
 12  2  2  0
 12  6  1  0
 12  8  1  0
 13  3  1  0
 14  7  1  0
 16 15  1  0
 17  1  2  0
 18 17  1  0
 19 11  1  0
 20 13  2  3
 21 18  1  0
 22  1  1  0
 22  8  1  0
 23  8  2  0
 23 14  1  0
 23 21  1  0
 24 15  1  0
 24 20  1  0
M  END
>  <ID>  (1) 
conformer_0

$$$$
