
     RDKit          3D

 27 28  0  0  0  0  0  0  0  0999 V2000
   -9.8585   29.8350   -4.2647 C   0  0  0  0  0  0  0  0  0  0  0  0
  -10.4536   30.7463   -3.7414 C   0  0  0  0  0  0  0  0  0  0  0  0
   -3.7237   31.2907   -1.2941 C   0  0  0  0  0  0  0  0  0  0  0  0
   -7.3355   30.5547   -3.1842 C   0  0  0  0  0  0  0  0  0  0  0  0
   -3.0638   28.3038   -5.4668 C   0  0  0  0  0  0  0  0  0  0  0  0
   -7.2751   30.0468   -3.9331 C   0  0  0  0  0  0  0  0  0  0  0  0
  -10.9814   32.4644    1.8334 C   0  0  0  0  0  0  0  0  0  0  0  0
   -8.7844   31.0311   -2.6447 C   0  0  0  0  0  0  0  0  0  0  0  0
   -2.6677   29.9200   -2.4454 C   0  0  0  0  0  0  0  0  0  0  0  0
   -2.7748   30.2899   -1.9066 N   0  0  0  0  0  0  0  0  0  0  0  0
  -11.5331   33.0328    0.7279 C   0  0  0  0  0  0  0  0  0  0  0  0
  -12.9641   33.0375    0.5425 O   0  0  0  0  0  0  0  0  0  0  0  0
   -4.4197   28.0791   -7.6147 O   0  0  0  0  0  0  0  0  0  0  0  0
   -7.6444   29.1119   -5.1287 N   0  0  0  0  0  0  0  0  0  0  0  0
   -4.8915   30.1964   -3.4333 C   0  0  0  0  0  0  0  0  0  0  0  0
   -5.0479   31.3849   -1.7936 N   0  0  0  0  0  0  0  0  0  0  0  0
  -11.1244   34.5085    0.9553 C   0  0  0  0  0  0  0  0  0  0  0  0
  -10.1046   31.5211   -2.2390 C   0  0  0  0  0  0  0  0  0  0  0  0
   -4.9096   28.5783   -5.4803 C   0  0  0  0  0  0  0  0  0  0  0  0
   -5.0970   30.7043   -2.6739 C   0  0  0  0  0  0  0  0  0  0  0  0
   -3.0589   28.4868   -4.9068 O   0  0  0  0  0  0  0  0  0  0  0  0
   -8.5469   29.1162   -4.8931 C   0  0  0  0  0  0  0  0  0  0  0  0
   -4.0632   32.0515   -0.2106 N   0  0  0  0  0  0  0  0  0  0  0  0
   -5.4427   28.7917   -5.2949 N   0  0  0  0  0  0  0  0  0  0  0  0
  -10.4181   32.0793   -1.0149 C   0  0  0  0  0  0  0  0  0  0  0  0
   -5.1330   27.9697   -7.9297 C   0  0  0  0  0  0  0  0  0  0  0  0
   -3.7108   29.6300   -3.7500 C   0  0  0  0  0  0  0  0  0  0  0  0
  2  1  1  0
  6  4  1  0
  8  4  2  0
 10  3  2  0
 10  9  1  0
 11  7  1  0
 12 11  1  0
 14  6  1  0
 16  3  1  0
 17 11  1  0
 18  2  1  0
 18  8  2  0
 19  5  1  0
 19 13  1  0
 20 15  1  0
 20 16  1  0
 21  5  1  0
 22  1  2  0
 22 14  1  0
 23  3  1  0
 24 14  1  0
 24 19  1  0
 25 11  1  0
 25 18  1  0
 26 13  1  0
 27  9  2  0
 27 15  1  0
 27 21  1  0
M  END
>  <ID>  (1) 
conformer_0

$$$$
