
     RDKit          3D

 19 21  0  0  0  0  0  0  0  0999 V2000
  -10.5607   30.5960   -3.7343 C   0  0  0  0  0  0  0  0  0  0  0  0
   -9.4445   29.6760   -3.7926 C   0  0  0  0  0  0  0  0  0  0  0  0
   -7.6814   30.1288   -3.3060 C   0  0  0  0  0  0  0  0  0  0  0  0
   -3.6947   29.6711   -3.6688 C   0  0  0  0  0  0  0  0  0  0  0  0
   -4.1896   28.4473   -5.5754 C   0  0  0  0  0  0  0  0  0  0  0  0
  -10.1247   31.3184   -2.5852 C   0  0  0  0  0  0  0  0  0  0  0  0
   -9.9122   31.7201   -1.7938 C   0  0  0  0  0  0  0  0  0  0  0  0
   -5.3178   30.2332   -3.1638 C   0  0  0  0  0  0  0  0  0  0  0  0
  -10.5558   32.5848   -0.6962 C   0  0  0  0  0  0  0  0  0  0  0  0
   -2.9022   30.5460   -2.2049 N   0  0  0  0  0  0  0  0  0  0  0  0
   -7.7557   29.6482   -4.2529 C   0  0  0  0  0  0  0  0  0  0  0  0
   -3.4298   27.9771   -5.7933 O   0  0  0  0  0  0  0  0  0  0  0  0
   -3.8462   30.6839   -2.1889 C   0  0  0  0  0  0  0  0  0  0  0  0
   -5.2805   27.6262   -7.3150 C   0  0  0  0  0  0  0  0  0  0  0  0
   -3.7633   31.7383   -0.4524 N   0  0  0  0  0  0  0  0  0  0  0  0
  -11.3387   33.5354    0.3604 C   0  0  0  0  0  0  0  0  0  0  0  0
   -5.3148   31.1548   -2.0488 N   0  0  0  0  0  0  0  0  0  0  0  0
  -11.4902   33.3083    1.4709 C   0  0  0  0  0  0  0  0  0  0  0  0
   -8.3049   30.9548   -2.6290 C   0  0  0  0  0  0  0  0  0  0  0  0
  2  1  1  0
  5  4  1  0
  6  1  1  0
  7  6  1  0
  8  3  1  0
  8  4  1  0
  9  7  2  0
 11  2  1  0
 11  3  1  0
 12  5  2  0
 13  4  1  0
 13  8  1  0
 13 10  1  0
 14  5  1  0
 15 10  1  0
 16  9  2  0
 17  8  1  0
 17 13  1  0
 18 16  1  0
 19  3  1  0
 19  6  2  0
M  END
>  <ID>  (1) 
conformer_0

$$$$
