
     RDKit          3D

 28 29  0  0  0  0  0  0  0  0999 V2000
   -7.2353   30.5349   -3.5695 C   0  0  0  0  0  0  0  0  0  0  0  0
   -9.6420   29.8919   -4.1168 C   0  0  1  0  0  0  0  0  0  0  0  0
   -6.3240   29.7778   -4.1174 C   0  0  2  0  0  0  0  0  0  0  0  0
   -4.0435   29.9561   -3.6608 C   0  0  0  0  0  0  0  0  0  0  0  0
   -4.5985   27.8283   -6.0376 C   0  0  0  0  0  0  0  0  0  0  0  0
  -10.5579   30.8295   -3.4664 C   0  0  0  0  0  0  0  0  0  0  0  0
   -5.6744   27.3044   -7.9354 C   0  0  0  0  0  0  0  0  0  0  0  0
   -9.2447   29.6827   -4.9040 C   0  0  0  0  0  0  0  0  0  0  0  0
   -2.9773   30.7126   -1.2081 N   0  0  0  0  0  0  0  0  0  0  0  0
   -4.6933   27.9802   -7.3413 O   0  0  0  0  0  0  0  0  0  0  0  0
   -8.1954   29.2221   -5.5819 N   0  0  0  0  0  0  0  0  0  0  0  0
  -11.5447   33.0697    0.6534 C   0  0  0  0  0  0  0  0  0  0  0  0
   -4.0647   31.9396   -0.2822 N   0  0  0  0  0  0  0  0  0  0  0  0
   -9.7046   31.7285   -2.0543 C   0  0  1  0  0  0  0  0  0  0  0  0
  -12.8245   33.0720    0.5250 O   0  0  0  0  0  0  0  0  0  0  0  0
   -3.8420   31.4424   -1.1217 C   0  0  0  0  0  0  0  0  0  0  0  0
  -10.2824   31.7864   -1.1858 C   0  0  0  0  0  0  0  0  0  0  0  0
   -2.5225   30.0694   -2.1118 C   0  0  0  0  0  0  0  0  0  0  0  0
  -10.6585   33.1165   -0.3172 C   0  0  0  0  0  0  0  0  0  0  0  0
   -3.0867   29.8130   -3.1889 N   0  0  0  0  0  0  0  0  0  0  0  0
   -7.8685   30.7588   -2.8510 C   0  0  0  0  0  0  0  0  0  0  0  0
   -4.7720   30.5074   -3.4094 C   0  0  2  0  0  0  0  0  0  0  0  0
   -6.0521   31.2715   -2.0019 N   0  0  0  0  0  0  0  0  0  0  0  0
   -3.1301   28.6048   -5.3279 C   0  0  0  0  0  0  0  0  0  0  0  0
  -11.0767   32.8604    1.9114 C   0  0  0  0  0  0  0  0  0  0  0  0
   -8.6611   30.7946   -2.7458 C   0  0  2  0  0  0  0  0  0  0  0  0
   -5.0759   30.9056   -2.5439 C   0  0  0  0  0  0  0  0  0  0  0  0
   -7.1897   29.2106   -4.7586 C   0  0  0  0  0  0  0  0  0  0  0  0
  3  1  1  6
  2  6  1  6
  8  2  1  0
 10  5  1  0
 10  7  1  0
 11  8  1  0
 14  6  1  6
 15 12  1  0
 16  9  1  0
 16 13  2  3
 17 14  1  0
 18  9  1  0
 19 12  1  0
 19 17  2  3
 20  4  2  3
 21  1  1  0
 22  3  1  0
 22  4  1  1
 24  5  1  0
 24 18  1  0
 25 12  2  3
 26  2  1  0
 26 14  1  0
 26 21  1  6
 27 16  1  0
 27 22  1  0
 27 23  2  3
 28  3  1  0
 28 11  1  0
M  END
>  <ID>  (1) 
conformer_0

$$$$
