
     RDKit          3D

 26 27  0  0  0  0  0  0  0  0999 V2000
   -9.4497   29.9961   -4.1130 C   0  0  2  0  0  0  0  0  0  0  0  0
  -10.0713   31.7637   -0.7824 C   0  0  0  0  0  0  0  0  0  0  0  0
   -5.7140   30.7424   -2.5583 C   0  0  0  0  0  0  0  0  0  0  0  0
   -3.7188   28.9516   -5.6048 C   0  0  0  0  0  0  0  0  0  0  0  0
  -10.5119   30.8752   -3.5703 C   0  0  0  0  0  0  0  0  0  0  0  0
  -11.0465   32.5320    2.0709 C   0  0  0  0  0  0  0  0  0  0  0  0
   -7.3670   30.3032   -3.5822 C   0  0  0  0  0  0  0  0  0  0  0  0
   -2.9025   30.4897   -1.5935 N   0  0  0  0  0  0  0  0  0  0  0  0
   -5.2673   28.1990   -5.9906 C   0  0  0  0  0  0  0  0  0  0  0  0
   -4.7132   28.1660   -7.7497 O   0  0  0  0  0  0  0  0  0  0  0  0
   -5.4726   31.4165   -1.9174 N   0  0  0  0  0  0  0  0  0  0  0  0
  -12.6463   33.0365    0.1401 O   0  0  0  0  0  0  0  0  0  0  0  0
   -3.9974   31.3468   -1.1572 C   0  0  0  0  0  0  0  0  0  0  0  0
  -11.3206   33.0033    0.2836 C   0  0  2  0  0  0  0  0  0  0  0  0
  -10.7375   33.3533    0.5137 C   0  0  0  0  0  0  0  0  0  0  0  0
   -4.7808   30.1340   -3.5085 C   0  0  1  0  0  0  0  0  0  0  0  0
  -10.1750   31.9835   -1.9422 C   0  0  0  0  0  0  0  0  0  0  0  0
   -2.9017   30.1909   -2.2050 C   0  0  0  0  0  0  0  0  0  0  0  0
   -3.9840   31.8854    0.0028 N   0  0  0  0  0  0  0  0  0  0  0  0
   -7.6393   29.5183   -5.1810 N   0  0  0  0  0  0  0  0  0  0  0  0
   -9.1119   30.8093   -2.4554 C   0  0  1  0  0  0  0  0  0  0  0  0
   -5.6716   27.5073   -7.8007 C   0  0  0  0  0  0  0  0  0  0  0  0
   -7.8289   30.7961   -2.7594 C   0  0  0  0  0  0  0  0  0  0  0  0
   -4.3262   30.0066   -3.5701 C   0  0  0  0  0  0  0  0  0  0  0  0
   -8.7857   29.6432   -4.7903 C   0  0  0  0  0  0  0  0  0  0  0  0
   -6.6637   29.6332   -4.0298 C   0  0  2  0  0  0  0  0  0  0  0  0
  1  5  1  6
  9  4  1  0
 10  9  1  0
 11  3  1  0
 13  8  1  0
 13 11  1  0
 14  2  1  0
 14 12  1  6
 15  6  1  0
 15 14  1  0
 16  3  1  1
 17  2  1  0
 18  8  2  3
 19 13  2  3
 21  1  1  0
 21  5  1  0
 21 17  1  6
 22 10  1  0
 23  7  1  0
 23 21  1  0
 24  4  1  0
 24 16  1  0
 25  1  1  0
 25 20  1  0
 26  7  1  1
 26 16  1  0
 26 20  1  0
M  END
>  <ID>  (1) 
conformer_0

$$$$
