
     RDKit          3D

 26 30  0  0  0  0  0  0  0  0999 V2000
  -10.0781   31.9818   -1.5553 C   0  0  0  0  0  0  0  0  0  0  0  0
   -7.5555   30.8515   -2.7215 C   0  0  2  0  0  0  0  0  0  0  0  0
   -3.8949   29.8213   -3.4001 C   0  0  0  0  0  0  0  0  0  0  0  0
   -8.7665   30.3388   -3.5809 C   0  0  1  0  0  0  0  0  0  0  0  0
   -4.9915   28.0650   -5.8944 C   0  0  0  0  0  0  0  0  0  0  0  0
  -10.5669   32.2588   -0.3049 C   0  0  0  0  0  0  0  0  0  0  0  0
   -9.0179   29.7591   -4.7225 C   0  0  1  0  0  0  0  0  0  0  0  0
   -4.9426   27.7774   -7.8164 O   0  0  0  0  0  0  0  0  0  0  0  0
   -5.3305   30.5538   -2.7670 C   0  0  0  0  0  0  0  0  0  0  0  0
   -2.7928   30.6246   -1.3783 N   0  0  0  0  0  0  0  0  0  0  0  0
  -10.8838   33.8239    0.7125 C   0  0  0  0  0  0  0  0  0  0  0  0
   -3.4004   28.6345   -4.1742 O   0  0  0  0  0  0  0  0  0  0  0  0
   -3.2742   28.5165   -5.3663 C   0  0  0  0  0  0  0  0  0  0  0  0
  -12.9432   33.1102    0.1956 O   0  0  0  0  0  0  0  0  0  0  0  0
   -7.6688   29.1062   -5.3709 N   0  0  0  0  0  0  0  0  0  0  0  0
   -3.8417   31.2508   -1.2763 C   0  0  0  0  0  0  0  0  0  0  0  0
  -11.7299   33.4471    0.4015 C   0  0  0  0  0  0  0  0  0  0  0  0
   -5.0542   31.2505   -1.9778 N   0  0  0  0  0  0  0  0  0  0  0  0
   -6.6649   29.9309   -3.6960 C   0  0  0  0  0  0  0  0  0  0  0  0
   -4.0293   32.0559   -0.0685 N   0  0  0  0  0  0  0  0  0  0  0  0
   -9.3652   31.2194   -2.1504 C   0  0  1  0  0  0  0  0  0  0  0  0
  -10.7626   31.0687   -3.3804 C   0  0  0  0  0  0  0  0  0  0  0  0
   -5.8422   27.5070   -7.5948 C   0  0  0  0  0  0  0  0  0  0  0  0
   -2.7418   29.9636   -2.3272 C   0  0  0  0  0  0  0  0  0  0  0  0
  -10.3225   30.0371   -4.3186 C   0  0  2  0  0  0  0  0  0  0  0  0
   -7.0848   29.2642   -4.6929 C   0  0  0  0  0  0  0  0  0  0  0  0
  4  2  1  1
  6  1  2  3
  7  4  1  0
  9  3  1  0
 12  3  1  0
 13  5  1  0
 13 12  1  0
  7 15  1  1
 16 10  2  0
 17  6  1  0
 17 11  2  3
 17 14  1  0
 18  9  1  0
 18 16  1  0
  2 19  1  1
 19  9  2  3
 20 16  1  0
 21  1  1  0
 21  2  1  0
 21  4  1  0
 21 22  1  1
 23  5  1  0
 23  8  1  0
 24  3  2  0
 24 10  1  0
 25  4  1  0
 25  7  1  0
 25 22  1  6
 26 15  1  0
 26 19  1  0
M  END
>  <ID>  (1) 
conformer_0

$$$$
