
     RDKit          3D

 26 31  0  0  0  0  0  0  0  0999 V2000
   -9.6615   29.8615   -4.0425 C   0  0  0  0  0  0  0  0  0  0  0  0
  -10.1983   31.7919   -0.9415 C   0  0  0  0  0  0  0  0  0  0  0  0
   -5.2824   30.5361   -2.8905 C   0  0  0  0  0  0  0  0  0  0  0  0
  -10.4478   30.9061   -3.2954 C   0  0  0  0  0  0  0  0  0  0  0  0
  -10.5794   33.1278   -0.0365 C   0  0  0  0  0  0  0  0  0  0  0  0
   -7.2565   29.8712   -3.9210 C   0  0  0  0  0  0  0  0  0  0  0  0
   -2.8481   30.4757   -1.6437 N   0  0  0  0  0  0  0  0  0  0  0  0
   -3.9529   31.2205   -1.3057 C   0  0  0  0  0  0  0  0  0  0  0  0
  -11.0188   32.7901    1.8100 C   0  0  0  0  0  0  0  0  0  0  0  0
   -3.6880   29.2343   -5.2542 C   0  0  0  0  0  0  0  0  0  0  0  0
   -3.6450   28.1340   -5.2047 O   0  0  0  0  0  0  0  0  0  0  0  0
  -12.6425   33.2639    0.2960 O   0  0  0  0  0  0  0  0  0  0  0  0
   -7.8186   29.3496   -5.1593 N   0  0  0  0  0  0  0  0  0  0  0  0
   -5.5746   27.4015   -8.2099 C   0  0  0  0  0  0  0  0  0  0  0  0
   -5.0672   31.1969   -2.0476 N   0  0  0  0  0  0  0  0  0  0  0  0
  -11.2896   33.4467    0.5017 C   0  0  0  0  0  0  0  0  0  0  0  0
   -3.9497   31.9663   -0.2101 N   0  0  0  0  0  0  0  0  0  0  0  0
   -9.8365   31.8753   -1.9505 C   0  0  0  0  0  0  0  0  0  0  0  0
   -4.1277   29.8658   -3.7889 C   0  0  0  0  0  0  0  0  0  0  0  0
   -8.7593   30.7418   -2.6050 C   0  0  0  0  0  0  0  0  0  0  0  0
   -4.6071   28.2124   -7.0366 O   0  0  0  0  0  0  0  0  0  0  0  0
   -7.4968   30.5657   -3.0561 C   0  0  0  0  0  0  0  0  0  0  0  0
   -8.9903   29.7253   -4.6125 C   0  0  0  0  0  0  0  0  0  0  0  0
   -2.7959   29.9941   -2.5286 C   0  0  0  0  0  0  0  0  0  0  0  0
   -4.9485   27.7254   -6.0595 C   0  0  0  0  0  0  0  0  0  0  0  0
   -6.0543   29.7654   -4.0757 C   0  0  0  0  0  0  0  0  0  0  0  0
  4  1  1  0
  5  2  1  0
  8  7  2  0
 11 10  1  0
 13  6  1  0
 15  3  1  0
 15  8  1  0
 16  5  1  0
 16  9  1  0
 16 12  1  0
 17  8  1  0
 18  2  1  0
 18  4  1  0
 19  3  1  0
 19 10  1  0
 20  1  1  0
 20  4  1  0
 20 18  1  0
 21 14  1  0
 22  6  1  0
 22 20  1  0
 23  1  1  0
 23  6  1  0
 23 13  1  0
 24  7  1  0
 24 19  1  0
 25 11  1  0
 25 21  1  0
 26  3  1  0
 26  6  1  0
 26 19  1  0
M  END
>  <ID>  (1) 
conformer_0

$$$$
