
     RDKit          3D

 20 22  0  0  0  0  0  0  0  0999 V2000
   -3.1946   29.9239   -3.2110 C   0  0  0  0  0  0  0  0  0  0  0  0
   -7.9482   30.6551   -2.9672 C   0  0  0  0  0  0  0  0  0  0  0  0
   -9.6887   30.1252   -4.1800 C   0  0  0  0  0  0  0  0  0  0  0  0
   -6.6495   30.0995   -3.7374 C   0  0  1  0  0  0  0  0  0  0  0  0
   -5.2424   28.7949   -4.9698 C   0  0  0  0  0  0  0  0  0  0  0  0
   -5.0088   31.5275   -1.6179 N   0  0  0  0  0  0  0  0  0  0  0  0
  -10.6584   30.8707   -3.5653 C   0  0  0  0  0  0  0  0  0  0  0  0
   -8.0583   29.7429   -4.5580 C   0  0  0  0  0  0  0  0  0  0  0  0
  -11.5418   33.1861    0.3565 C   0  0  0  0  0  0  0  0  0  0  0  0
   -3.7188   31.0936   -1.5702 C   0  0  2  0  0  0  0  0  0  0  0  0
   -4.2563   28.3332   -5.6940 O   0  0  0  0  0  0  0  0  0  0  0  0
   -7.4637   29.0885   -5.3289 N   0  0  0  0  0  0  0  0  0  0  0  0
   -9.3134   31.1597   -2.1297 C   0  0  0  0  0  0  0  0  0  0  0  0
   -3.6985   31.9572   -0.1053 N   0  0  0  0  0  0  0  0  0  0  0  0
   -2.7491   30.5796   -2.0554 N   0  0  0  0  0  0  0  0  0  0  0  0
   -4.9196   30.5521   -2.8959 C   0  0  0  0  0  3  0  0  0  0  0  0
  -10.2782   31.7000   -1.6563 C   0  0  0  0  0  0  0  0  0  0  0  0
   -5.3259   27.4068   -6.4678 C   0  0  0  0  0  0  0  0  0  0  0  0
   -4.9254   30.2863   -3.2892 C   0  0  1  0  0  0  0  0  0  0  0  0
  -10.6109   32.4868    0.1855 C   0  0  0  0  0  0  0  0  0  0  0  0
  4  2  1  0
  7  3  2  3
  8  2  1  0
  8  3  1  0
  4  8  1  6
 10  6  1  0
 11  5  1  0
 12  5  2  3
 12  8  1  0
 13  2  2  0
 10 14  1  1
 15  1  2  0
 15 10  1  0
 16  6  1  0
 16 10  1  0
 17 13  2  0
 18 11  1  0
 19  1  1  0
 19  4  1  0
 19 16  1  1
 20  9  2  3
 20 17  1  0
M  RAD  1  16   2
M  END
>  <ID>  (1) 
conformer_0

$$$$
