
     RDKit          3D

 20 20  0  0  0  0  0  0  0  0999 V2000
   -9.7973   30.0992   -4.3656 C   0  0  0  0  0  0  0  0  0  0  0  0
  -10.0102   31.6957   -1.7397 C   0  0  0  0  0  0  0  0  0  0  0  0
   -4.6990   30.2715   -3.1045 C   0  0  0  0  0  0  0  0  0  0  0  0
  -10.5762   32.3660   -0.6274 C   0  0  0  0  0  0  0  0  0  0  0  0
  -10.3168   30.9128   -3.3429 C   0  0  1  0  0  0  0  0  0  0  0  0
   -5.2660   27.7140   -7.9177 C   0  0  0  0  0  0  0  0  0  0  0  0
   -2.9083   30.3812   -1.3200 N   0  0  0  0  0  0  0  0  0  0  0  0
  -11.3338   33.6796    1.0126 C   0  0  0  0  0  0  0  0  0  0  0  0
   -7.0115   30.3846   -3.5683 C   0  0  0  0  0  0  0  0  0  0  0  0
   -3.6149   28.2086   -5.2899 O   0  0  0  0  0  0  0  0  0  0  0  0
   -4.1414   28.6198   -5.7302 C   0  0  0  0  0  0  0  0  0  0  0  0
   -5.1400   31.2528   -1.9502 N   0  0  0  0  0  0  0  0  0  0  0  0
  -13.2611   32.9726    0.8218 O   0  0  0  0  0  0  0  0  0  0  0  0
  -11.8931   33.0959    0.5837 C   0  0  0  0  0  0  0  0  0  0  0  0
   -3.8288   31.1095   -1.1736 C   0  0  0  0  0  0  0  0  0  0  0  0
   -7.0780   30.1422   -3.6251 C   0  0  0  0  0  0  0  0  0  0  0  0
   -3.9362   30.1208   -3.3256 C   0  0  0  0  0  0  0  0  0  0  0  0
   -2.7810   29.7788   -2.4117 C   0  0  0  0  0  0  0  0  0  0  0  0
   -8.7240   30.9125   -2.7004 C   0  0  1  0  0  0  0  0  0  0  0  0
   -8.7347   29.7595   -4.7427 C   0  0  0  0  0  0  0  0  0  0  0  0
  4  2  2  0
  5  1  1  1
  5  2  1  0
 11  6  1  0
 11 10  2  0
 12  3  1  0
 14  4  2  0
 14  8  1  0
 14 13  1  0
 15  7  1  0
 15 12  2  3
 16  9  2  3
 17  3  1  0
 17  9  1  0
 18  7  2  3
 18 11  1  0
 19  2  1  0
 19  5  1  0
 19  9  1  6
 20  1  2  3
M  END
>  <ID>  (1) 
conformer_0

$$$$
