
     RDKit          3D

 21 22  0  0  0  0  0  0  0  0999 V2000
   -9.8922   30.1424   -4.1547 C   0  0  0  0  0  0  0  0  0  0  0  0
   -8.1368   30.7916   -2.8729 C   0  0  0  0  0  0  0  0  0  0  0  0
   -4.4010   29.9940   -3.4480 C   0  0  0  0  0  0  0  0  0  0  0  0
   -6.9268   30.3417   -3.1476 C   0  0  0  0  0  0  0  0  0  0  0  0
   -4.4498   28.5022   -5.6256 C   0  0  0  0  0  0  0  0  0  0  0  0
   -9.3945   31.4472   -2.2374 C   0  0  0  0  0  0  0  0  0  0  0  0
   -7.7859   29.7825   -4.3023 C   0  0  1  0  0  0  0  0  0  0  0  0
   -5.8084   27.5259   -7.4569 C   0  0  0  0  0  0  0  0  0  0  0  0
   -5.0399   27.8760   -7.4582 O   0  0  0  0  0  0  0  0  0  0  0  0
   -3.6962   31.0283   -1.4405 N   0  0  0  0  0  0  0  0  0  0  0  0
   -2.6736   29.9920   -2.2410 C   0  0  0  0  0  0  0  0  0  0  0  0
  -10.1507   32.0348   -1.4247 C   0  0  0  0  0  0  0  0  0  0  0  0
  -12.6982   33.1332    0.5314 O   0  0  0  0  0  0  0  0  0  0  0  0
   -7.2870   29.4939   -5.0362 N   0  0  0  0  0  0  0  0  0  0  0  0
  -10.4297   32.6240   -0.3111 C   0  0  0  0  0  0  0  0  0  0  0  0
  -11.5124   33.3148    0.9511 C   0  0  0  0  0  0  0  0  0  0  0  0
   -3.7770   28.6934   -4.7978 O   0  0  0  0  0  0  0  0  0  0  0  0
   -2.9590   29.6985   -3.1602 N   0  0  0  0  0  0  0  0  0  0  0  0
   -4.3502   31.0002   -2.0021 C   0  0  0  0  0  0  0  0  0  0  0  0
  -11.2224   33.7523    1.4181 C   0  0  0  0  0  0  0  0  0  0  0  0
  -10.5127   31.0264   -3.4227 C   0  0  0  0  0  0  0  0  0  0  0  0
  4  2  1  0
  6  2  2  3
  7  2  1  0
  7  4  1  0
  7  5  1  0
  9  5  1  0
  9  8  1  0
 11 10  1  0
 12  6  1  0
  7 14  1  1
 15 12  2  0
 16 13  1  0
 16 15  2  0
 17  3  1  0
 17  5  1  0
 18  3  2  0
 18 11  1  0
 19  3  1  0
 19 10  2  0
 20 16  1  0
 21  1  1  0
 21  6  1  0
M  END
>  <ID>  (1) 
conformer_0

$$$$
