
     RDKit          3D

 18 19  0  0  0  0  0  0  0  0999 V2000
   -9.7606   29.8733   -4.4139 C   0  0  0  0  0  0  0  0  0  0  0  0
  -10.1396   30.8216   -3.5142 C   0  0  2  0  0  0  0  0  0  0  0  0
   -4.0040   30.9577   -1.9601 C   0  0  0  0  0  0  0  0  0  0  0  0
   -8.6967   30.7879   -2.8156 C   0  0  2  0  0  0  0  0  0  0  0  0
   -7.2830   29.9309   -3.8401 C   0  0  0  0  0  0  0  0  0  0  0  0
   -4.0325   28.1635   -5.4744 C   0  0  0  0  0  0  0  0  0  0  0  0
   -4.9234   30.2664   -3.3233 C   0  0  0  0  0  0  0  0  0  0  0  0
   -5.7628   27.5704   -7.6392 C   0  0  0  0  0  0  0  0  0  0  0  0
   -9.9207   31.6491   -1.8164 C   0  0  2  0  0  0  0  0  0  0  0  0
   -4.7954   27.8599   -7.2996 O   0  0  0  0  0  0  0  0  0  0  0  0
   -8.2930   29.5219   -5.0436 C   0  0  0  0  0  0  0  0  0  0  0  0
  -11.8024   33.3117    0.8883 C   0  0  0  0  0  0  0  0  0  0  0  0
   -3.6766   29.9190   -3.2431 C   0  0  0  0  0  0  0  0  0  0  0  0
  -10.4179   32.2084   -0.9118 C   0  0  0  0  0  0  0  0  0  0  0  0
  -12.9196   33.0176    0.5392 O   0  0  0  0  0  0  0  0  0  0  0  0
  -10.9605   32.9037    1.0676 C   0  0  0  0  0  0  0  0  0  0  0  0
   -2.9451   30.7493   -1.7692 N   0  0  0  0  0  0  0  0  0  0  0  0
   -7.5568   30.7595   -3.0668 C   0  0  0  0  0  0  0  0  0  0  0  0
  2  1  1  1
  4  2  1  0
  7  5  2  0
  9  2  1  0
  9  4  1  0
 10  6  1  0
 10  8  1  0
 11  1  1  0
 11  5  1  0
 13  3  1  0
 13  6  1  0
 13  7  2  0
  9 14  1  1
 15 12  1  0
 16 12  1  0
 16 14  1  0
 17  3  2  3
  4 18  1  6
 18  5  1  0
M  END
>  <ID>  (1) 
conformer_0

$$$$
