
     RDKit          3D

 23 25  0  0  0  0  0  0  0  0999 V2000
   -3.2643   29.7559   -3.1983 C   0  0  0  0  0  0  0  0  0  0  0  0
  -10.2358   32.0866   -1.2938 C   0  0  0  0  0  0  0  0  0  0  0  0
   -9.8470   30.1515   -3.8627 C   0  0  0  0  0  0  0  0  0  0  0  0
  -10.5373   32.7043    0.0931 C   0  0  0  0  0  0  0  0  0  0  0  0
  -10.5424   31.0164   -3.2942 C   0  0  0  0  0  0  0  0  0  0  0  0
   -3.9091   28.4365   -5.5660 C   0  0  0  0  0  0  0  0  0  0  0  0
  -11.2363   33.6746    1.8576 C   0  0  0  0  0  0  0  0  0  0  0  0
   -6.8445   29.4243   -4.4852 C   0  0  0  0  0  0  0  0  0  0  0  0
   -2.7161   30.2127   -2.3629 N   0  0  0  0  0  0  0  0  0  0  0  0
   -4.7064   27.8946   -7.8273 O   0  0  0  0  0  0  0  0  0  0  0  0
   -5.6459   27.5804   -7.6185 C   0  0  0  0  0  0  0  0  0  0  0  0
   -5.0580   30.2255   -3.2200 C   0  0  0  0  0  0  0  0  0  0  0  0
  -12.6115   33.2035    0.3867 O   0  0  0  0  0  0  0  0  0  0  0  0
   -9.5859   31.5792   -2.0144 C   0  0  0  0  0  0  0  0  0  0  0  0
   -8.1473   29.3576   -5.2301 N   0  0  0  0  0  0  0  0  0  0  0  0
   -8.3315   30.9720   -2.7367 C   0  0  0  0  0  0  0  0  0  0  0  0
  -11.5688   33.4980    0.8166 C   0  0  0  0  0  0  0  0  0  0  0  0
   -3.9169   30.9317   -1.7692 C   0  0  0  0  0  0  0  0  0  0  0  0
   -3.8517   31.6212   -0.3114 N   0  0  0  0  0  0  0  0  0  0  0  0
   -4.7810   31.0338   -1.9559 N   0  0  0  0  0  0  0  0  0  0  0  0
   -5.4554   28.3232   -5.2634 C   0  0  1  0  0  0  0  0  0  0  0  0
   -8.8241   29.9111   -4.3419 C   0  0  2  0  0  0  0  0  0  0  0  0
   -7.1342   30.2149   -3.5658 C   0  0  2  0  0  0  0  0  0  0  0  0
  4  2  1  0
  5  3  1  0
  9  1  1  0
 11 10  1  0
 12  1  1  0
 14  2  2  3
 14  5  1  0
 15  8  1  0
 16 14  1  0
 17  4  1  0
 17  7  2  3
 17 13  1  0
 18  9  2  0
 19 18  1  0
 20 12  2  0
 20 18  1  0
 21  6  1  6
 21  8  1  0
 21 11  1  0
 22  3  1  1
 22 15  1  0
 23  8  1  0
 23 12  1  0
 23 16  1  1
 23 22  1  0
M  END
>  <ID>  (1) 
conformer_0

$$$$
