
     RDKit          3D

 24 26  0  0  0  0  0  0  0  0999 V2000
   -9.7988   30.0099   -4.0792 C   0  0  0  0  0  0  0  0  0  0  0  0
  -10.6871   30.9353   -3.6153 C   0  0  0  0  0  0  0  0  0  0  0  0
   -4.8962   30.5335   -3.0263 C   0  0  0  0  0  0  0  0  0  0  0  0
   -5.8033   27.3666   -8.0304 C   0  0  0  0  0  0  0  0  0  0  0  0
   -8.6680   30.7663   -2.7601 C   0  0  0  0  0  0  0  0  0  0  0  0
  -10.0531   31.4612   -2.0261 C   0  0  0  0  0  0  0  0  0  0  0  0
   -5.2557   27.9759   -6.3465 C   0  0  0  0  0  0  0  0  0  0  0  0
   -7.1889   30.3105   -3.4582 C   0  0  0  0  0  0  0  0  0  0  0  0
   -2.7328   30.5027   -1.7188 N   0  0  0  0  0  0  0  0  0  0  0  0
  -10.3450   32.2078   -0.7983 C   0  0  0  0  0  0  0  0  0  0  0  0
  -12.6804   33.2311    0.2606 O   0  0  0  0  0  0  0  0  0  0  0  0
  -11.4119   33.2518    0.5307 C   0  0  0  0  0  0  0  0  0  0  0  0
   -4.2822   28.0982   -7.1700 O   0  0  0  0  0  0  0  0  0  0  0  0
   -3.5338   31.0568   -1.3788 C   0  0  0  0  0  0  0  0  0  0  0  0
   -7.5248   29.2394   -5.4262 N   0  0  0  0  0  0  0  0  0  0  0  0
   -4.6712   31.4373   -1.7737 N   0  0  0  0  0  0  0  0  0  0  0  0
  -11.0342   32.9897    1.2417 C   0  0  0  0  0  0  0  0  0  0  0  0
   -6.8627   30.0862   -3.6093 C   0  0  0  0  0  0  0  0  0  0  0  0
   -4.8452   30.2283   -3.4707 C   0  0  0  0  0  0  0  0  0  0  0  0
   -3.1085   29.8744   -3.0863 C   0  0  0  0  0  0  0  0  0  0  0  0
   -4.0109   32.0263   -0.3451 N   0  0  0  0  0  0  0  0  0  0  0  0
   -3.2820   28.7595   -5.2274 O   0  0  0  0  0  0  0  0  0  0  0  0
   -3.8187   28.2737   -5.0092 C   0  0  0  0  0  0  0  0  0  0  0  0
   -8.5762   29.6169   -4.6789 C   0  0  0  0  0  0  0  0  0  0  0  0
  2  1  1  0
  5  1  1  0
  6  2  1  0
  6  5  1  0
  7  4  1  0
  8  5  2  0
 10  6  1  0
 12 10  1  0
 12 11  1  0
 13  7  1  0
 14  9  2  0
 16  3  1  0
 16 14  1  0
 17 12  1  0
 18  8  2  0
 19  3  1  0
 19 18  1  0
 20  9  1  0
 20 19  1  0
 21 14  1  0
 21 16  1  0
 23  7  1  0
 23 20  1  0
 23 22  1  0
 24  1  1  0
 24 15  1  0
M  END
>  <ID>  (1) 
conformer_0

$$$$
