
     RDKit          3D

 23 24  0  0  0  0  0  0  0  0999 V2000
  -10.0753   31.9280   -1.7086 C   0  0  0  0  0  0  0  0  0  0  0  0
   -9.8273   30.1846   -3.9807 C   0  0  2  0  0  0  0  0  0  0  0  0
   -3.4219   30.7532   -1.9147 C   0  0  0  0  0  0  0  0  0  0  0  0
  -10.7296   32.8267   -0.4255 C   0  0  0  0  0  0  0  0  0  0  0  0
   -8.5867   30.7836   -3.0198 C   0  0  1  0  0  0  0  0  0  0  0  0
   -5.3642   27.8759   -6.4752 C   0  0  0  0  0  0  0  0  0  0  0  0
  -11.1940   33.3227    1.6562 C   0  0  0  0  0  0  0  0  0  0  0  0
   -8.2742   29.4453   -4.8416 C   0  0  0  0  0  0  0  0  0  0  0  0
   -4.8002   27.9396   -7.0749 O   0  0  0  0  0  0  0  0  0  0  0  0
   -3.1557   30.5659   -2.0289 N   0  0  0  0  0  0  0  0  0  0  0  0
   -3.7370   31.5843   -0.4887 N   0  0  0  0  0  0  0  0  0  0  0  0
   -6.9697   30.1132   -3.7618 C   0  0  0  0  0  0  0  0  0  0  0  0
   -3.5731   29.6204   -3.7621 C   0  0  0  0  0  0  0  0  0  0  0  0
  -11.7426   33.0055    0.5020 C   0  0  0  0  0  0  0  0  0  0  0  0
   -7.7880   29.3552   -5.3713 N   0  0  0  0  0  0  0  0  0  0  0  0
   -3.2167   28.4151   -4.6861 O   0  0  0  0  0  0  0  0  0  0  0  0
   -3.6523   28.5957   -5.4204 C   0  0  0  0  0  0  0  0  0  0  0  0
   -7.6316   30.8486   -2.8839 C   0  0  0  0  0  0  0  0  0  0  0  0
   -4.9468   30.1520   -3.5839 C   0  0  0  0  0  0  0  0  0  0  0  0
   -5.7654   31.3348   -2.0027 N   0  0  0  0  0  0  0  0  0  0  0  0
  -10.2956   31.3029   -2.8428 C   0  0  2  0  0  0  0  0  0  0  0  0
  -12.7838   32.9019   -0.3490 O   0  0  0  0  0  0  0  0  0  0  0  0
   -5.0463   30.5708   -2.8931 C   0  0  0  0  0  0  0  0  0  0  0  0
  4  1  1  0
  5  2  1  0
  2  8  1  6
  9  6  1  0
 10  3  2  3
 11  3  1  0
 12  8  1  0
 14  4  1  0
 14  7  2  3
 15  8  2  3
 16 13  1  0
 17  6  1  0
 17 16  1  0
  5 18  1  6
 18 12  2  0
 19 13  1  0
 20 18  1  0
 21  1  1  1
 21  2  1  0
 21  5  1  0
 22 14  1  0
 23  3  1  0
 23 19  2  3
 23 20  1  0
M  END
>  <ID>  (1) 
conformer_0

$$$$
