
     RDKit          3D

 22 23  0  0  0  0  0  0  0  0999 V2000
   -8.0615   30.9951   -2.7889 C   0  0  0  0  0  0  0  0  0  0  0  0
   -9.7750   30.9119   -2.8548 C   0  0  0  0  0  0  0  0  0  0  0  0
   -9.7738   31.7417   -1.8974 C   0  0  0  0  0  0  0  0  0  0  0  0
   -3.3967   29.9517   -3.2901 C   0  0  0  0  0  0  0  0  0  0  0  0
   -4.5596   28.5735   -5.2484 C   0  0  0  0  0  0  0  0  0  0  0  0
   -9.8193   29.9483   -4.0113 C   0  0  0  0  0  0  0  0  0  0  0  0
   -2.9461   30.5926   -1.8222 N   0  0  0  0  0  0  0  0  0  0  0  0
  -11.2167   33.4938    1.3981 C   0  0  0  0  0  0  0  0  0  0  0  0
   -8.0066   29.7310   -4.4992 C   0  0  0  0  0  0  0  0  0  0  0  0
  -11.4562   33.0400    0.3872 C   0  0  0  0  0  0  0  0  0  0  0  0
   -4.3574   28.1210   -7.0567 O   0  0  0  0  0  0  0  0  0  0  0  0
   -3.9124   31.8325   -0.1464 N   0  0  0  0  0  0  0  0  0  0  0  0
  -10.3768   32.3723   -0.8889 C   0  0  0  0  0  0  0  0  0  0  0  0
   -5.4918   27.6501   -7.2607 C   0  0  0  0  0  0  0  0  0  0  0  0
   -3.8453   31.2304   -1.4575 C   0  0  0  0  0  0  0  0  0  0  0  0
   -4.8926   31.3695   -1.7347 N   0  0  0  0  0  0  0  0  0  0  0  0
   -7.4822   29.3632   -5.1520 N   0  0  0  0  0  0  0  0  0  0  0  0
  -12.6592   33.0101    0.1648 O   0  0  0  0  0  0  0  0  0  0  0  0
   -5.2695   30.5044   -2.8735 C   0  0  0  0  0  0  0  0  0  0  0  0
   -7.0079   30.2610   -3.4667 C   0  0  0  0  0  0  0  0  0  0  0  0
   -4.9498   30.3898   -3.4186 C   0  0  0  0  0  0  0  0  0  0  0  0
   -3.3652   28.6520   -5.1607 O   0  0  0  0  0  0  0  0  0  0  0  0
  2  1  2  0
  3  2  1  0
  6  2  1  0
  7  4  1  0
  9  5  1  0
  9  6  1  0
 10  8  1  0
 11  5  1  0
 13  3  2  0
 13 10  2  0
 14 11  1  0
 15  7  2  0
 15 12  1  0
 16 15  1  0
 17  9  1  0
 18 10  1  0
 19 16  1  0
 20  1  1  0
 20  9  1  0
 20 19  1  0
 21  4  1  0
 21 19  1  0
 22  5  2  0
M  END
>  <ID>  (1) 
conformer_0

$$$$
