
     RDKit          3D

 26 27  0  0  0  0  0  0  0  0999 V2000
  -10.1855   29.7198   -4.4703 C   0  0  0  0  0  0  0  0  0  0  0  0
  -10.9543   30.8406   -4.1502 C   0  0  0  0  0  0  0  0  0  0  0  0
   -4.3316   29.7471   -3.8225 C   0  0  0  0  0  0  0  0  0  0  0  0
   -8.0515   30.7318   -2.8434 C   0  0  0  0  0  0  0  0  0  0  0  0
  -11.5592   33.6822    1.8793 C   0  0  0  0  0  0  0  0  0  0  0  0
   -3.7248   29.0153   -5.6863 C   0  0  0  0  0  0  0  0  0  0  0  0
  -10.2262   32.0926   -1.0747 C   0  0  0  0  0  0  0  0  0  0  0  0
   -9.2316   29.6452   -4.7065 C   0  0  0  0  0  0  0  0  0  0  0  0
   -3.9398   31.2002   -1.4078 C   0  0  0  0  0  0  0  0  0  0  0  0
   -2.9382   30.2682   -2.2047 N   0  0  0  0  0  0  0  0  0  0  0  0
   -4.5318   28.1100   -7.2930 O   0  0  0  0  0  0  0  0  0  0  0  0
   -5.3152   31.1437   -1.9377 N   0  0  0  0  0  0  0  0  0  0  0  0
  -10.9615   33.3447    0.5832 C   0  0  0  0  0  0  0  0  0  0  0  0
   -3.9186   31.8109   -0.0800 N   0  0  0  0  0  0  0  0  0  0  0  0
  -12.7666   33.0138   -0.0568 O   0  0  0  0  0  0  0  0  0  0  0  0
   -5.3920   27.7624   -8.0743 C   0  0  0  0  0  0  0  0  0  0  0  0
   -5.5262   30.5171   -2.8700 C   0  0  0  0  0  0  0  0  0  0  0  0
   -3.5936   28.0546   -5.0632 O   0  0  0  0  0  0  0  0  0  0  0  0
   -7.7332   29.5962   -5.0644 N   0  0  0  0  0  0  0  0  0  0  0  0
   -9.9933   31.6357   -2.1401 C   0  0  0  0  0  0  0  0  0  0  0  0
   -9.4232   30.6383   -3.0168 C   0  0  0  0  0  0  0  0  0  0  0  0
  -11.4140   33.1918   -0.0327 C   0  0  0  0  0  0  0  0  0  0  0  0
   -6.8322   29.8467   -3.7721 C   0  0  0  0  0  0  0  0  0  0  0  0
   -3.0121   30.0086   -2.6039 C   0  0  0  0  0  0  0  0  0  0  0  0
   -5.2220   28.3669   -5.6703 C   0  0  0  0  0  0  0  0  0  0  0  0
   -7.2389   30.0103   -4.2371 C   0  0  0  0  0  0  0  0  0  0  0  0
  2  1  1  0
  6  3  1  0
  8  1  1  0
 10  9  2  0
 12  9  1  0
 13  5  1  0
 14  9  1  0
 16 11  1  0
 17  3  1  0
 17 12  2  0
 18  6  1  0
 19  8  1  0
 20  7  1  0
 21  1  1  0
 21  4  1  0
 21 20  1  0
 22  7  1  0
 22 13  1  0
 22 15  1  0
 23 17  1  0
 24  3  1  0
 24 10  1  0
 25  6  1  0
 25 11  1  0
 26  4  1  0
 26 19  1  0
 26 23  1  0
M  END
>  <ID>  (1) 
conformer_0

$$$$
