
     RDKit          3D

 23 24  0  0  0  0  0  0  0  0999 V2000
   -8.0864   30.6876   -2.9607 C   0  0  1  0  0  0  0  0  0  0  0  0
   -9.5666   31.1781   -2.2794 C   0  0  1  0  0  0  0  0  0  0  0  0
   -2.9030   30.2479   -2.1795 C   0  0  0  0  0  0  0  0  0  0  0  0
   -6.8826   30.0962   -3.6562 C   0  0  0  0  0  0  0  0  0  0  0  0
   -5.0297   28.2320   -5.8363 C   0  0  0  0  0  0  0  0  0  0  0  0
  -10.2267   31.7738   -1.6064 C   0  0  0  0  0  0  0  0  0  0  0  0
   -8.0731   29.6252   -4.4632 C   0  0  2  0  0  0  0  0  0  0  0  0
  -11.3477   32.9881    1.6606 C   0  0  0  0  0  0  0  0  0  0  0  0
   -5.7875   27.4204   -8.1594 C   0  0  0  0  0  0  0  0  0  0  0  0
   -4.8253   27.7660   -7.6857 O   0  0  0  0  0  0  0  0  0  0  0  0
   -5.1527   31.4979   -1.5672 N   0  0  0  0  0  0  0  0  0  0  0  0
  -12.8569   33.1781    0.1386 O   0  0  0  0  0  0  0  0  0  0  0  0
   -4.4085   30.0061   -3.4167 C   0  0  0  0  0  0  0  0  0  0  0  0
   -7.6350   29.0905   -5.3301 N   0  0  0  0  0  0  0  0  0  0  0  0
  -11.6024   33.2155    0.4549 C   0  0  2  0  0  0  0  0  0  0  0  0
   -2.6872   29.8869   -3.1758 N   0  0  0  0  0  0  0  0  0  0  0  0
  -10.6142   32.3319   -0.2072 C   0  0  0  0  0  0  0  0  0  0  0  0
   -5.0754   30.2396   -3.2779 C   0  0  0  0  0  0  0  0  0  0  0  0
   -4.5683   31.1366   -1.7725 C   0  0  0  0  0  0  0  0  0  0  0  0
   -9.7713   29.7684   -4.2737 C   0  0  0  0  0  0  0  0  0  0  0  0
  -10.3163   30.7051   -3.7148 C   0  0  0  0  0  0  0  0  0  0  0  0
   -2.9846   30.9138   -1.2371 N   0  0  0  0  0  0  0  0  0  0  0  0
   -3.1964   28.5062   -5.3302 C   0  0  0  0  0  0  0  0  0  0  0  0
  2  1  1  0
  1  4  1  1
  6  2  1  0
  7  1  1  0
  7  4  1  0
 10  5  1  0
 10  9  1  0
  7 14  1  6
 15  8  1  1
 15 12  1  0
 16 13  1  0
 17  6  2  3
 17 15  1  0
 18  4  2  3
 18 13  1  0
 19 11  2  3
 19 18  1  0
 20  7  1  0
  2 21  1  6
 21 20  1  0
 22  3  1  0
 22 19  1  0
 23  3  1  0
 23  5  1  0
M  END
>  <ID>  (1) 
conformer_0

$$$$
