
     RDKit          3D

 20 22  0  0  0  0  0  0  0  0999 V2000
   -9.9632   31.7264   -1.8904 C   0  0  0  0  0  0  0  0  0  0  0  0
  -10.5468   31.2128   -3.2923 C   0  0  1  0  0  0  0  0  0  0  0  0
   -3.7439   30.8498   -1.9682 C   0  0  0  0  0  0  0  0  0  0  0  0
   -8.7637   31.0803   -2.6862 C   0  0  0  0  0  0  0  0  0  0  0  0
  -11.1292   33.1485    1.8808 C   0  0  0  0  0  0  0  0  0  0  0  0
   -2.6847   28.6200   -5.6353 C   0  0  0  0  0  0  0  0  0  0  0  0
   -2.8558   30.5922   -1.9300 N   0  0  0  0  0  0  0  0  0  0  0  0
   -8.1330   29.5284   -4.7370 C   0  0  0  0  0  0  0  0  0  0  0  0
   -3.6552   29.7250   -3.8216 C   0  0  0  0  0  0  0  0  0  0  0  0
  -10.2608   32.3736   -0.6010 C   0  0  0  0  0  0  0  0  0  0  0  0
  -12.5668   33.1376    0.2792 O   0  0  0  0  0  0  0  0  0  0  0  0
   -4.4842   27.8931   -6.2437 O   0  0  0  0  0  0  0  0  0  0  0  0
  -11.3010   33.0617    0.4599 C   0  0  1  0  0  0  0  0  0  0  0  0
   -5.2150   27.8374   -6.9244 C   0  0  0  0  0  0  0  0  0  0  0  0
   -7.5295   30.3542   -3.6814 C   0  0  0  0  0  0  0  0  0  0  0  0
   -5.0265   30.2137   -3.3012 C   0  0  0  0  0  0  0  0  0  0  0  0
   -4.1733   31.9212   -0.1893 N   0  0  0  0  0  0  0  0  0  0  0  0
   -4.8433   31.1873   -1.8952 N   0  0  0  0  0  0  0  0  0  0  0  0
   -9.6851   30.1484   -3.9391 C   0  0  2  0  0  0  0  0  0  0  0  0
   -8.0260   29.3422   -5.4300 N   0  0  0  0  0  0  0  0  0  0  0  0
  2  1  1  1
  4  1  1  0
  4  2  1  0
  7  3  3  0
  9  6  1  0
 10  1  2  3
 12  6  1  0
 13  5  1  1
 13 10  1  0
 13 11  1  0
 14 12  1  0
 15  4  1  0
 15  8  1  0
 16  9  1  0
 16 15  2  3
 18  3  1  0
 18 16  1  0
 18 17  1  0
 19  2  1  0
 19  4  1  0
 19  8  1  6
 20  8  2  3
M  END
>  <ID>  (1) 
conformer_0

$$$$
