
     RDKit          3D

 26 28  0  0  0  0  0  0  0  0999 V2000
  -10.1416   30.3089   -4.1973 C   0  0  0  0  0  0  0  0  0  0  0  0
   -7.6227   30.8222   -2.7939 C   0  0  0  0  0  0  0  0  0  0  0  0
   -3.9872   30.0576   -3.7522 C   0  0  0  0  0  0  0  0  0  0  0  0
   -6.5383   30.0175   -3.6608 C   0  0  0  0  0  0  0  0  0  0  0  0
   -5.4705   27.5785   -7.0558 C   0  0  0  0  0  0  0  0  0  0  0  0
   -8.7573   30.3480   -3.2535 C   0  0  0  0  0  0  0  0  0  0  0  0
   -9.0993   30.0812   -4.7898 C   0  0  0  0  0  0  0  0  0  0  0  0
   -2.7559   30.6998   -1.4980 N   0  0  0  0  0  0  0  0  0  0  0  0
  -10.1220   31.2360   -2.7830 C   0  0  0  0  0  0  0  0  0  0  0  0
   -4.5903   27.8172   -7.5880 O   0  0  0  0  0  0  0  0  0  0  0  0
  -11.0234   32.6773    1.7127 C   0  0  0  0  0  0  0  0  0  0  0  0
  -11.7258   33.1142    1.0254 C   0  0  0  0  0  0  0  0  0  0  0  0
   -3.9292   31.9902   -0.2646 N   0  0  0  0  0  0  0  0  0  0  0  0
   -5.3324   30.6478   -2.7341 C   0  0  0  0  0  0  0  0  0  0  0  0
   -7.8215   29.6041   -5.1843 N   0  0  0  0  0  0  0  0  0  0  0  0
   -3.5399   28.8012   -5.6212 C   0  0  0  0  0  0  0  0  0  0  0  0
  -12.7517   33.1001    0.2057 O   0  0  0  0  0  0  0  0  0  0  0  0
   -4.9527   31.4096   -1.8961 N   0  0  0  0  0  0  0  0  0  0  0  0
   -4.0061   31.3642   -1.3355 C   0  0  0  0  0  0  0  0  0  0  0  0
   -2.6245   29.6828   -3.4481 S   0  0  0  0  0  0  0  0  0  0  0  0
   -9.6682   31.4770   -1.7071 C   0  0  0  0  0  0  0  0  0  0  0  0
  -10.4637   32.2872   -0.6614 C   0  0  0  0  0  0  0  0  0  0  0  0
   -4.9992   28.1316   -5.2386 C   0  0  0  0  0  0  0  0  0  0  0  0
   -7.1542   29.7179   -4.4884 C   0  0  0  0  0  0  0  0  0  0  0  0
   -3.8248   28.4784   -5.5784 O   0  0  0  0  0  0  0  0  0  0  0  0
   -2.6270   30.1239   -2.4282 C   0  0  0  0  0  0  0  0  0  0  0  0
  4  2  1  0
  6  2  1  0
  7  1  1  0
  7  6  1  0
  9  1  1  0
  9  6  1  0
 10  5  1  0
 12 11  1  0
 14  3  1  0
 14  4  1  0
 15  7  1  0
 16  3  1  0
 17 12  1  0
 18 14  1  0
 19  8  2  0
 19 13  1  0
 19 18  1  0
 20  3  1  0
 21  9  1  0
 22 12  1  0
 22 21  1  0
 23  5  1  0
 24  4  1  0
 24 15  1  0
 25 16  1  0
 25 23  1  0
 26  8  1  0
 26 20  1  0
M  END
>  <ID>  (1) 
conformer_0

$$$$
