
     RDKit          3D

 27 28  0  0  0  0  0  0  0  0999 V2000
   -8.7598   30.3513   -3.2974 C   0  0  1  0  0  0  0  0  0  0  0  0
   -7.2155   30.5395   -3.1265 C   0  0  0  0  0  0  0  0  0  0  0  0
   -6.3972   29.7930   -3.8733 C   0  0  0  0  0  0  0  0  0  0  0  0
   -2.4368   30.0087   -2.0484 C   0  0  0  0  0  0  0  0  0  0  0  0
   -4.8933   28.3036   -5.6270 C   0  0  0  0  0  0  0  0  0  0  0  0
   -9.2524   31.3292   -2.2829 C   0  0  2  0  0  0  0  0  0  0  0  0
   -9.4807   29.7738   -4.6528 C   0  0  0  0  0  0  0  0  0  0  0  0
   -2.6061   30.2761   -1.9776 N   0  0  0  0  0  0  0  0  0  0  0  0
   -5.0181   27.8822   -7.5224 O   0  0  0  0  0  0  0  0  0  0  0  0
  -10.1732   31.6484   -1.1162 C   0  0  2  0  0  0  0  0  0  0  0  0
  -11.2468   33.2768    0.3576 C   0  0  2  0  0  0  0  0  0  0  0  0
   -5.7378   27.4222   -8.1072 C   0  0  0  0  0  0  0  0  0  0  0  0
   -3.2531   28.2107   -4.3147 O   0  0  0  0  0  0  0  0  0  0  0  0
   -4.9380   30.6935   -2.6789 C   0  0  0  0  0  0  0  0  0  0  0  0
  -11.3000   32.4855    1.5537 C   0  0  0  0  0  0  0  0  0  0  0  0
   -8.0483   29.2448   -5.1966 N   0  0  0  0  0  0  0  0  0  0  0  0
  -12.3402   33.7709    0.2928 O   0  0  0  0  0  0  0  0  0  0  0  0
   -4.0263   32.2073   -0.0375 N   0  0  0  0  0  0  0  0  0  0  0  0
   -3.1969   28.7142   -5.3511 C   0  0  0  0  0  0  0  0  0  0  0  0
   -3.6056   29.7401   -3.4895 C   0  0  1  0  0  0  0  0  0  0  0  0
  -10.3761   30.2014   -4.3201 C   0  0  0  0  0  0  0  0  0  0  0  0
   -4.7673   30.6417   -3.0274 C   0  0  1  0  0  0  0  0  0  0  0  0
   -7.2284   29.4622   -4.5854 C   0  0  0  0  0  0  0  0  0  0  0  0
   -4.1496   31.3876   -1.3605 N   0  0  0  0  0  0  0  0  0  0  0  0
  -10.6345   31.5228   -2.8483 C   0  0  0  0  0  0  0  0  0  0  0  0
   -3.9679   31.5161   -1.2061 C   0  0  0  0  0  0  0  0  0  0  0  0
  -10.6998   32.8133   -0.4690 C   0  0  0  0  0  0  0  0  0  0  0  0
  1  2  1  6
  3  2  2  0
  6  1  1  0
  7  1  1  0
  8  4  2  3
  9  5  1  0
 10  6  1  0
 12  9  1  0
 11 15  1  1
 16  7  1  0
 17 11  1  0
 19  5  1  0
 19 13  1  0
 20  4  1  0
 20 13  1  1
 21  7  2  3
 22  3  1  0
 22 14  1  1
 22 20  1  0
 23  3  1  0
 23 16  1  0
 24 14  1  0
  6 25  1  6
 25 10  1  0
 26 18  1  0
 26 24  1  0
 10 27  1  6
 27 11  1  0
M  END
>  <ID>  (1) 
conformer_0

$$$$
