
     RDKit          3D

 22 22  0  0  0  0  0  0  0  0999 V2000
  -10.5579   30.9415   -3.4792 C   0  0  0  0  0  0  0  0  0  0  0  0
   -9.0588   31.0814   -2.5676 C   0  0  1  0  0  0  0  0  0  0  0  0
   -7.7351   30.5571   -3.0759 C   0  0  0  0  0  0  0  0  0  0  0  0
   -9.9779   31.8874   -1.7643 C   0  0  0  0  0  0  0  0  0  0  0  0
   -2.8833   30.0935   -2.6272 C   0  0  0  0  0  0  0  0  0  0  0  0
   -3.7184   28.5191   -5.4950 C   0  0  1  0  0  0  0  0  0  0  0  0
   -2.9355   30.6955   -1.2838 N   0  0  0  0  0  0  0  0  0  0  0  0
   -8.4486   29.7438   -4.5378 C   0  0  0  0  0  0  0  0  0  0  0  0
  -10.0466   29.8228   -4.3318 C   0  0  0  0  0  0  0  0  0  0  0  0
   -4.7622   27.7362   -7.2797 O   0  0  0  0  0  0  0  0  0  0  0  0
   -6.6965   30.0268   -3.6684 C   0  0  0  0  0  0  0  0  0  0  0  0
   -4.8150   30.4419   -3.0120 C   0  0  0  0  0  0  0  0  0  0  0  0
   -4.8005   27.7475   -5.6164 C   0  0  0  0  0  0  0  0  0  0  0  0
   -7.9076   29.3250   -5.1748 N   0  0  0  0  0  0  0  0  0  0  0  0
  -11.2537   33.2166    0.8816 C   0  0  1  0  0  0  0  0  0  0  0  0
   -3.9971   29.3634   -4.7403 N   0  0  0  0  0  0  0  0  0  0  0  0
   -3.9654   31.2086   -1.2731 C   0  0  0  0  0  0  0  0  0  0  0  0
  -12.9699   33.0098    0.1575 O   0  0  0  0  0  0  0  0  0  0  0  0
   -4.7306   31.5503   -1.5097 N   0  0  0  0  0  0  0  0  0  0  0  0
  -10.2916   32.5701   -0.9348 C   0  0  0  0  0  0  0  0  0  0  0  0
  -10.9749   34.6028    0.4245 C   0  0  0  0  0  0  0  0  0  0  0  0
   -5.2645   27.5474   -8.0881 C   0  0  0  0  0  0  0  0  0  0  0  0
  2  1  1  0
  3  2  1  0
  2  4  1  6
  6  5  1  0
  7  5  1  0
  8  3  1  0
  9  1  1  0
  9  8  1  0
 11  3  1  0
 12 11  2  3
 13  6  1  0
 13 10  1  0
 14  8  2  3
  6 16  1  6
 17  7  1  0
 18 15  1  0
 19 12  1  0
 19 17  1  0
 20  4  3  0
 20 15  1  0
 15 21  1  6
 22 10  1  0
M  END
>  <ID>  (1) 
conformer_0

$$$$
