
     RDKit          3D

 21 21  0  0  0  0  0  0  0  0999 V2000
   -9.9443   30.0695   -4.2782 C   0  0  0  0  0  0  0  0  0  0  0  0
   -7.2061   30.3468   -3.3824 C   0  0  0  0  0  0  0  0  0  0  0  0
   -8.5081   30.8820   -2.7185 C   0  0  0  0  0  3  0  0  0  0  0  0
   -3.6419   28.6420   -5.8625 C   0  0  0  0  0  0  0  0  0  0  0  0
   -4.5215   30.1668   -3.2655 C   0  0  0  0  0  0  0  0  0  0  0  0
   -9.8911   31.5887   -2.0218 C   0  0  0  0  0  0  0  0  0  0  0  0
   -7.9663   29.7968   -4.1837 C   0  0  0  0  0  0  0  0  0  0  0  0
  -11.2061   33.1591    1.2850 C   0  0  0  0  0  0  0  0  0  0  0  0
   -4.8339   27.7819   -7.7612 O   0  0  0  0  0  0  0  0  0  0  0  0
   -3.5754   30.9565   -1.3120 N   0  0  0  0  0  0  0  0  0  0  0  0
  -12.7345   33.1418    0.1551 O   0  0  0  0  0  0  0  0  0  0  0  0
   -5.0069   28.2839   -5.6054 C   0  0  1  0  0  0  0  0  0  0  0  0
   -4.4417   31.2621   -1.6061 C   0  0  0  0  0  0  0  0  0  0  0  0
  -11.5478   33.0956    0.6893 C   0  0  0  0  0  0  0  0  0  0  0  0
   -5.1604   30.3974   -3.1370 C   0  0  2  0  0  0  0  0  0  0  0  0
  -10.4082   32.2416   -0.8482 C   0  0  0  0  0  0  0  0  0  0  0  0
   -2.8204   29.9195   -3.2045 N   0  0  0  0  0  0  0  0  0  0  0  0
   -2.8530   30.2673   -2.2560 C   0  0  0  0  0  0  0  0  0  0  0  0
   -7.5929   29.2041   -4.8440 N   0  0  0  0  0  0  0  0  0  0  0  0
  -10.4727   31.0280   -3.4380 C   0  0  0  0  0  0  0  0  0  0  0  0
   -5.4802   27.5783   -7.8374 C   0  0  0  0  0  0  0  0  0  0  0  0
  3  2  2  3
  6  3  1  0
  7  2  1  0
 12  4  1  6
 12  7  1  0
 12  9  1  0
 13 10  1  0
 14  8  1  0
 14 11  1  0
 15  2  1  0
 15  5  1  1
 15 13  1  0
 16  6  2  0
 16 14  2  0
 17  5  1  0
 18 10  2  0
 18 17  1  0
 19  7  1  0
 20  1  1  0
 20  6  1  0
 21  9  1  0
M  RAD  1   3   2
M  END
>  <ID>  (1) 
conformer_0

$$$$
