
     RDKit          3D

 28 30  0  0  0  0  0  0  0  0999 V2000
   -8.9873   30.7597   -2.7655 C   0  0  2  0  0  0  0  0  0  0  0  0
   -6.7518   29.7699   -3.9020 C   0  0  0  0  0  0  0  0  0  0  0  0
   -7.6851   30.7480   -2.8407 C   0  0  0  0  0  0  0  0  0  0  0  0
   -5.3257   30.5842   -2.7134 C   0  0  0  0  0  0  0  0  0  0  0  0
  -10.0132   31.4591   -1.7486 C   0  0  0  0  0  0  0  0  0  0  0  0
   -3.8121   28.3419   -5.3078 C   0  0  0  0  0  0  0  0  0  0  0  0
   -8.8350   29.9604   -4.3931 C   0  0  1  0  0  0  0  0  0  0  0  0
  -10.5517   34.6638    0.6278 C   0  0  0  0  0  0  0  0  0  0  0  0
   -5.5069   27.3742   -8.7198 C   0  0  0  0  0  0  0  0  0  0  0  0
   -3.0233   29.5919   -3.6178 N   0  0  0  0  0  0  0  0  0  0  0  0
  -11.6625   33.4719    0.7878 C   0  0  0  0  0  0  0  0  0  0  0  0
   -4.4621   27.8188   -7.8871 O   0  0  0  0  0  0  0  0  0  0  0  0
   -4.3635   29.4857   -3.8882 C   0  0  0  0  0  0  0  0  0  0  0  0
  -12.7897   33.8686    1.1440 N   0  0  0  0  0  0  0  0  0  0  0  0
   -3.9590   31.7908   -0.5172 N   0  0  0  0  0  0  0  0  0  0  0  0
   -7.7383   29.1731   -5.1914 N   0  0  0  0  0  0  0  0  0  0  0  0
  -10.1077   32.2845   -1.2817 C   0  0  0  0  0  0  0  0  0  0  0  0
   -5.0345   31.2304   -2.0704 N   0  0  0  0  0  0  0  0  0  0  0  0
   -2.7852   29.8388   -2.6082 C   0  0  0  0  0  0  0  0  0  0  0  0
   -3.0562   28.0100   -5.8130 O   0  0  0  0  0  0  0  0  0  0  0  0
   -5.5746   30.0256   -3.3349 C   0  0  0  0  0  0  0  0  0  0  0  0
   -9.8196   29.9452   -4.3346 C   0  0  0  0  0  0  0  0  0  0  0  0
  -10.5682   30.8821   -3.6926 C   0  0  0  0  0  0  0  0  0  0  0  0
   -3.9317   31.1437   -1.6148 C   0  0  0  0  0  0  0  0  0  0  0  0
   -5.0919   27.8655   -6.5396 C   0  0  0  0  0  0  0  0  0  0  0  0
   -6.9821   29.4201   -4.4969 C   0  0  0  0  0  0  0  0  0  0  0  0
   -2.8193   30.3253   -1.7740 N   0  0  0  0  0  0  0  0  0  0  0  0
  -10.8471   32.8964    0.3493 C   0  0  0  0  0  0  0  0  0  0  0  0
  3  1  1  0
  3  2  1  0
  1  5  1  6
  7  1  1  0
 11  8  1  0
 12  9  1  0
 13  6  1  0
 13 10  1  0
 14 11  2  3
 16  7  1  0
 17  5  1  0
 18  4  1  0
 19 10  1  0
 20  6  2  0
 21  2  1  0
 21  4  1  0
 21 13  2  0
  7 22  1  1
 23  1  1  0
 23 22  1  0
 24 15  1  0
 24 18  2  0
 25  6  1  0
 25 12  1  0
 26  2  2  0
 26 16  1  0
 27 19  1  0
 27 24  1  0
 28 11  1  0
 28 17  1  0
M  END
>  <ID>  (1) 
conformer_0

$$$$
