
     RDKit          3D

 22 24  0  0  0  0  0  0  0  0999 V2000
   -3.6399   30.9336   -1.7983 C   0  0  0  0  0  0  0  0  0  0  0  0
  -10.7602   33.0310    0.1541 C   0  0  0  0  0  0  0  0  0  0  0  0
   -9.6018   29.9334   -3.9055 C   0  0  0  0  0  0  0  0  0  0  0  0
  -10.3998   31.9832   -1.2914 C   0  0  0  0  0  0  0  0  0  0  0  0
  -11.2728   33.3764    1.6975 C   0  0  0  0  0  0  0  0  0  0  0  0
   -3.9914   28.2305   -5.3344 C   0  0  0  0  0  0  0  0  0  0  0  0
   -6.7916   29.1860   -4.4349 C   0  0  0  0  0  0  0  0  0  0  0  0
  -10.4094   30.8368   -3.3723 C   0  0  0  0  0  0  0  0  0  0  0  0
   -2.5527   30.4000   -2.5636 N   0  0  0  0  0  0  0  0  0  0  0  0
   -4.4149   27.9420   -7.4110 O   0  0  0  0  0  0  0  0  0  0  0  0
   -7.8042   29.1806   -5.3965 N   0  0  0  0  0  0  0  0  0  0  0  0
  -13.0792   32.9795    0.3569 O   0  0  0  0  0  0  0  0  0  0  0  0
   -4.9545   30.1422   -3.3919 C   0  0  0  0  0  0  0  0  0  0  0  0
  -11.7177   33.1208    0.3406 C   0  0  0  0  0  0  0  0  0  0  0  0
   -9.6633   31.5635   -2.0865 C   0  0  0  0  0  0  0  0  0  0  0  0
   -4.6752   31.1388   -1.8982 N   0  0  0  0  0  0  0  0  0  0  0  0
   -5.3301   27.9778   -6.8928 C   0  0  0  0  0  0  0  0  0  0  0  0
   -3.8401   31.8345   -0.4463 N   0  0  0  0  0  0  0  0  0  0  0  0
   -8.2336   30.8539   -2.8700 C   0  0  0  0  0  0  0  0  0  0  0  0
   -3.3124   29.8067   -3.3775 C   0  0  0  0  0  0  0  0  0  0  0  0
   -6.7796   30.0039   -3.6463 C   0  0  0  0  0  0  0  0  0  0  0  0
   -8.7704   29.6935   -4.5968 C   0  0  0  0  0  0  0  0  0  0  0  0
  4  2  1  0
  8  3  1  0
  9  1  2  0
 11  7  1  0
 14  2  1  0
 14  5  1  0
 14 12  1  0
 15  4  1  0
 15  8  1  0
 16  1  1  0
 16 13  2  0
 17  6  1  0
 17 10  1  0
 18  1  1  0
 19  3  1  0
 19 15  1  0
 20  6  1  0
 20  9  1  0
 20 13  1  0
 21  7  1  0
 21 13  1  0
 21 19  1  0
 22  3  1  0
 22 11  1  0
M  END
>  <ID>  (1) 
conformer_0

$$$$
