
     RDKit          3D

 25 26  0  0  0  0  0  0  0  0999 V2000
   -9.6495   29.8093   -4.1700 C   0  0  0  0  0  0  0  0  0  0  0  0
  -10.5081   30.5604   -3.9525 C   0  0  0  0  0  0  0  0  0  0  0  0
   -3.9475   31.1292   -1.5560 C   0  0  0  0  0  0  0  0  0  0  0  0
   -8.6077   30.9976   -2.7013 C   0  0  0  0  0  0  0  0  0  0  0  0
   -7.4444   30.3782   -3.3611 C   0  0  0  0  0  0  0  0  0  0  0  0
   -4.4996   28.3982   -5.7122 C   0  0  0  0  0  0  0  0  0  0  0  0
  -10.0629   31.3383   -2.4507 C   0  0  0  0  0  0  0  0  0  0  0  0
   -6.8778   29.4725   -4.3296 C   0  0  0  0  0  0  0  0  0  0  0  0
   -2.7583   30.2400   -2.0501 N   0  0  0  0  0  0  0  0  0  0  0  0
   -5.6035   27.6194   -7.6893 C   0  0  0  0  0  0  0  0  0  0  0  0
   -5.0607   31.4160   -2.0445 N   0  0  0  0  0  0  0  0  0  0  0  0
   -3.8372   31.6050   -0.2718 N   0  0  0  0  0  0  0  0  0  0  0  0
   -2.7363   29.8961   -2.7011 C   0  0  0  0  0  0  0  0  0  0  0  0
   -3.3394   27.9762   -5.1315 O   0  0  0  0  0  0  0  0  0  0  0  0
   -7.4323   29.3894   -5.0519 N   0  0  0  0  0  0  0  0  0  0  0  0
  -11.0696   32.8314    1.7117 C   0  0  0  0  0  0  0  0  0  0  0  0
  -12.8989   33.1689    0.2679 O   0  0  0  0  0  0  0  0  0  0  0  0
  -11.7416   33.1268    0.5073 C   0  0  0  0  0  0  0  0  0  0  0  0
   -4.5425   27.9944   -7.3517 O   0  0  0  0  0  0  0  0  0  0  0  0
   -5.3092   30.5759   -2.9788 C   0  0  0  0  0  0  0  0  0  0  0  0
   -5.0233   30.0574   -3.6203 C   0  0  0  0  0  0  0  0  0  0  0  0
   -9.9668   32.1018   -1.6111 C   0  0  0  0  0  0  0  0  0  0  0  0
  -10.5579   32.7336   -0.2701 C   0  0  0  0  0  0  0  0  0  0  0  0
   -4.0867   29.5636   -3.8830 C   0  0  0  0  0  0  0  0  0  0  0  0
   -8.7302   29.7642   -4.7674 C   0  0  0  0  0  0  0  0  0  0  0  0
  2  1  1  0
  5  4  2  0
  7  2  1  0
  7  4  2  0
  8  5  1  0
  9  3  2  0
 11  3  1  0
 12  3  1  0
 13  9  1  0
 14  6  1  0
 15  8  1  0
 18 16  1  0
 18 17  1  0
 19  6  1  0
 19 10  1  0
 20 11  1  0
 21  8  1  0
 21 20  1  0
 22  7  1  0
 23 18  1  0
 23 22  1  0
 24  6  1  0
 24 13  2  0
 24 21  1  0
 25  1  1  0
 25 15  1  0
M  END
>  <ID>  (1) 
conformer_0

$$$$
