
     RDKit          3D

 25 29  0  0  0  0  0  0  0  0999 V2000
  -10.2602   29.9333   -4.2995 C   0  0  0  0  0  0  0  0  0  0  0  0
   -7.7458   30.7724   -2.7299 C   0  0  0  0  0  0  0  0  0  0  0  0
   -8.9519   30.0416   -3.6692 C   0  0  0  0  0  0  0  0  0  0  0  0
   -3.4846   30.0180   -3.2156 C   0  0  0  0  0  0  0  0  0  0  0  0
   -5.1666   27.9127   -7.0981 C   0  0  0  0  0  0  0  0  0  0  0  0
  -10.7408   31.0686   -3.3184 C   0  0  0  0  0  0  0  0  0  0  0  0
   -8.4295   29.5805   -4.5767 C   0  0  0  0  0  0  0  0  0  0  0  0
   -2.8862   30.5000   -2.1050 N   0  0  0  0  0  0  0  0  0  0  0  0
  -11.2976   33.1980    0.1848 C   0  0  0  0  0  0  0  0  0  0  0  0
  -12.7169   33.2167    0.1283 O   0  0  0  0  0  0  0  0  0  0  0  0
   -9.0825   31.2740   -2.3670 C   0  0  0  0  0  0  0  0  0  0  0  0
   -4.6613   28.0165   -7.5664 O   0  0  0  0  0  0  0  0  0  0  0  0
   -3.9714   31.7872    0.1087 N   0  0  0  0  0  0  0  0  0  0  0  0
   -3.8597   31.1001   -1.4753 C   0  0  0  0  0  0  0  0  0  0  0  0
  -10.2184   31.6311   -1.7109 C   0  0  0  0  0  0  0  0  0  0  0  0
   -4.1016   28.0590   -5.1178 O   0  0  0  0  0  0  0  0  0  0  0  0
  -10.2190   32.4491   -0.9013 C   0  0  0  0  0  0  0  0  0  0  0  0
   -5.3233   30.5633   -2.9151 C   0  0  0  0  0  0  0  0  0  0  0  0
   -4.9852   31.4697   -1.6663 N   0  0  0  0  0  0  0  0  0  0  0  0
   -4.8122   30.0244   -3.5172 C   0  0  0  0  0  0  0  0  0  0  0  0
   -3.6513   28.7927   -5.6813 C   0  0  0  0  0  0  0  0  0  0  0  0
   -7.6632   29.2472   -5.1139 N   0  0  0  0  0  0  0  0  0  0  0  0
   -6.0902   28.8719   -4.9900 C   0  0  0  0  0  0  0  0  0  0  0  0
  -10.9456   32.7460    1.1677 C   0  0  0  0  0  0  0  0  0  0  0  0
   -6.8259   29.8565   -3.8446 C   0  0  0  0  0  0  0  0  0  0  0  0
  3  1  1  0
  3  2  1  0
  6  1  1  0
  7  3  1  0
  8  4  1  0
 10  9  1  0
 11  2  1  0
 11  3  1  0
 12  5  1  0
 14  8  2  0
 14 13  1  0
 15  6  1  0
 15 11  1  0
 17  9  1  0
 17 15  1  0
 19 14  1  0
 19 18  1  0
 20  4  1  0
 20 18  2  0
 21  5  1  0
 21 16  1  0
 22  7  1  0
 23 16  1  0
 23 20  1  0
 23 22  1  0
 24  9  1  0
 25  2  1  0
 25 22  1  0
 25 23  1  0
M  END
>  <ID>  (1) 
conformer_0

$$$$
