
     RDKit          3D

 25 26  0  0  0  0  0  0  0  0999 V2000
  -10.0387   30.1657   -4.4012 C   0  0  0  0  0  0  0  0  0  0  0  0
   -7.5021   30.8836   -2.6978 C   0  0  0  0  0  0  0  0  0  0  0  0
   -9.3261   31.3187   -2.0656 C   0  0  0  0  0  0  0  0  0  0  0  0
   -3.8568   29.8436   -3.4063 C   0  0  0  0  0  0  0  0  0  0  0  0
   -5.1835   27.8668   -6.0371 C   0  0  0  0  0  0  0  0  0  0  0  0
  -10.6022   31.0581   -3.5286 C   0  0  0  0  0  0  0  0  0  0  0  0
   -3.1513   30.5564   -2.2580 N   0  0  0  0  0  0  0  0  0  0  0  0
  -10.2179   31.9440   -1.7144 C   0  0  0  0  0  0  0  0  0  0  0  0
   -5.3534   27.6089   -7.5292 O   0  0  0  0  0  0  0  0  0  0  0  0
   -7.0377   29.3789   -4.3457 C   0  0  2  0  0  0  0  0  0  0  0  0
   -6.0170   27.2570   -8.2501 C   0  0  0  0  0  0  0  0  0  0  0  0
   -3.8018   31.0397   -1.5934 C   0  0  0  0  0  0  0  0  0  0  0  0
  -10.9363   34.2923    0.8604 C   0  0  0  0  0  0  0  0  0  0  0  0
   -3.8774   31.9224    0.0875 N   0  0  0  0  0  0  0  0  0  0  0  0
  -12.6512   33.1210    0.3207 O   0  0  0  0  0  0  0  0  0  0  0  0
  -11.4188   33.3355    0.5079 C   0  0  0  0  0  0  0  0  0  0  0  0
   -5.4774   30.5645   -2.7950 C   0  0  0  0  0  0  0  0  0  0  0  0
  -10.5259   32.5697   -0.2880 C   0  0  0  0  0  0  0  0  0  0  0  0
   -7.7944   29.0586   -5.0793 N   0  0  0  0  0  0  0  0  0  0  0  0
   -4.9829   31.4828   -1.7425 N   0  0  0  0  0  0  0  0  0  0  0  0
   -8.4050   30.4393   -3.5378 C   0  0  2  0  0  0  0  0  0  0  0  0
   -5.1242   30.0956   -3.4390 C   0  0  0  0  0  0  0  0  0  0  0  0
   -6.2977   29.7860   -4.2029 C   0  0  0  0  0  0  0  0  0  0  0  0
   -3.7331   28.3526   -5.1296 C   0  0  0  0  0  0  0  0  0  0  0  0
   -9.1215   29.8174   -4.6292 C   0  0  2  0  0  0  0  0  0  0  0  0
  6  1  1  0
  6  3  1  0
  7  4  1  0
  8  3  1  0
  9  5  1  0
 11  9  1  0
 12  7  2  0
 14 12  1  0
 16 13  2  3
 16 15  1  0
 18  8  2  3
 18 16  1  0
 19 10  1  0
 20 12  1  0
 20 17  1  0
 21  2  1  6
 21 10  1  0
 22  4  2  0
 22 17  1  0
 10 23  1  6
 23 22  1  0
 24  4  1  0
 24  5  1  0
 25  1  1  1
 25 19  1  0
 25 21  1  0
M  END
>  <ID>  (1) 
conformer_0

$$$$
