
     RDKit          3D

 25 26  0  0  0  0  0  0  0  0999 V2000
  -10.2914   32.0535   -1.5063 C   0  0  0  0  0  0  0  0  0  0  0  0
  -10.0353   30.1623   -4.0160 C   0  0  0  0  0  0  0  0  0  0  0  0
   -3.8226   31.3369   -1.3260 C   0  0  0  0  0  0  0  0  0  0  0  0
  -10.6645   31.1010   -3.2626 C   0  0  0  0  0  0  0  0  0  0  0  0
  -10.6605   32.7593    0.0154 C   0  0  0  0  0  0  0  0  0  0  0  0
   -7.1557   29.8211   -4.0319 C   0  0  0  0  0  0  0  0  0  0  0  0
  -11.6676   33.4679    1.8541 C   0  0  0  0  0  0  0  0  0  0  0  0
   -3.7745   28.5643   -5.6065 C   0  0  1  0  0  0  0  0  0  0  0  0
   -5.6043   27.3978   -8.0879 C   0  0  0  0  0  0  0  0  0  0  0  0
   -2.8244   30.1325   -2.1434 N   0  0  0  0  0  0  0  0  0  0  0  0
   -3.2746   28.1486   -4.7481 O   0  0  0  0  0  0  0  0  0  0  0  0
   -4.6194   27.8079   -7.6711 O   0  0  0  0  0  0  0  0  0  0  0  0
  -12.7402   33.1138    0.1042 O   0  0  0  0  0  0  0  0  0  0  0  0
   -4.0161   29.8448   -3.6543 C   0  0  0  0  0  0  0  0  0  0  0  0
  -11.4454   33.2535    0.4866 C   0  0  2  0  0  0  0  0  0  0  0  0
   -9.4968   31.6108   -1.9011 C   0  0  1  0  0  0  0  0  0  0  0  0
   -7.9250   29.4775   -4.6677 N   0  0  0  0  0  0  0  0  0  0  0  0
   -5.3795   30.7899   -2.6856 C   0  0  0  0  0  0  0  0  0  0  0  0
   -8.5324   30.9602   -2.8024 C   0  0  0  0  0  0  0  0  0  0  0  0
   -4.9785   30.3111   -3.4919 C   0  0  0  0  0  0  0  0  0  0  0  0
   -5.1677   29.2957   -4.6456 C   0  0  0  0  0  0  0  0  0  0  0  0
   -4.6980   31.3916   -1.7617 N   0  0  0  0  0  0  0  0  0  0  0  0
   -9.0705   29.5493   -4.5564 C   0  0  0  0  0  0  0  0  0  0  0  0
   -7.2468   30.5633   -3.1062 C   0  0  1  0  0  0  0  0  0  0  0  0
   -2.6553   30.0465   -2.3651 C   0  0  0  0  0  0  0  0  0  0  0  0
  4  2  1  0
  5  1  2  3
 10  3  2  0
  8 11  1  1
 12  8  1  0
 12  9  1  0
 15  5  1  0
 15  7  1  1
 15 13  1  0
 16  1  1  0
 16  4  1  1
 17  6  2  0
 19 16  1  0
 20 14  1  0
 20 18  2  0
 21  8  1  0
 21 20  1  0
 22  3  1  0
 22 18  1  0
 23  2  1  0
 23 17  1  0
 24  6  1  0
 24 18  1  0
 24 19  1  6
 25 10  1  0
 25 14  2  0
M  END
>  <ID>  (1) 
conformer_0

$$$$
