
     RDKit          3D

 26 27  0  0  0  0  0  0  0  0999 V2000
   -7.5181   30.7712   -3.3443 C   0  0  0  0  0  0  0  0  0  0  0  0
   -8.7003   30.0232   -3.7565 C   0  0  2  0  0  0  0  0  0  0  0  0
   -4.1499   29.7760   -3.5475 C   0  0  2  0  0  0  0  0  0  0  0  0
   -3.3568   28.5716   -5.4687 C   0  0  0  0  0  0  0  0  0  0  0  0
   -6.5171   29.3620   -4.3271 C   0  0  0  0  0  0  0  0  0  0  0  0
  -11.1490   33.0503    2.1062 C   0  0  0  0  0  0  0  0  0  0  0  0
   -5.4309   30.5266   -2.8036 C   0  0  0  0  0  0  0  0  0  0  0  0
   -9.1694   31.3357   -2.1377 C   0  0  0  0  0  0  0  0  0  0  0  0
   -2.7130   30.4662   -1.6829 N   0  0  0  0  0  0  0  0  0  0  0  0
   -6.1092   27.6631   -7.4054 C   0  0  0  0  0  0  0  0  0  0  0  0
   -9.1283   29.4612   -5.0274 C   0  0  2  0  0  0  0  0  0  0  0  0
  -11.2988   33.2046    0.3253 C   0  0  2  0  0  0  0  0  0  0  0  0
   -4.7990   27.8371   -7.4289 O   0  0  0  0  0  0  0  0  0  0  0  0
  -12.5733   33.1100    0.2314 O   0  0  0  0  0  0  0  0  0  0  0  0
   -4.0083   31.1166   -1.4988 C   0  0  0  0  0  0  0  0  0  0  0  0
   -3.4500   28.9053   -4.2446 O   0  0  0  0  0  0  0  0  0  0  0  0
   -3.9130   31.8365   -0.3817 N   0  0  0  0  0  0  0  0  0  0  0  0
   -5.7452   31.0248   -2.1149 N   0  0  0  0  0  0  0  0  0  0  0  0
  -10.2920   31.9563   -1.6450 C   0  0  1  0  0  0  0  0  0  0  0  0
   -8.4110   29.1718   -5.4723 N   0  0  0  0  0  0  0  0  0  0  0  0
   -2.8888   29.9783   -2.5649 C   0  0  0  0  0  0  0  0  0  0  0  0
  -10.4085   31.2276   -3.0092 C   0  0  2  0  0  0  0  0  0  0  0  0
  -10.3738   30.3904   -4.2234 C   0  0  2  0  0  0  0  0  0  0  0  0
   -7.7652   30.2750   -3.4767 C   0  0  0  0  0  0  0  0  0  0  0  0
   -4.9890   28.1579   -5.9427 C   0  0  0  0  0  0  0  0  0  0  0  0
  -10.5891   32.7078   -0.0312 C   0  0  0  0  0  0  0  0  0  0  0  0
 11  2  1  0
 12  6  1  1
 13 10  1  0
 14 12  1  0
 15  9  1  0
  3 16  1  1
 16  4  1  0
 17 15  2  3
 18  7  2  3
 18 15  1  0
 19  8  1  0
 11 20  1  6
 21  3  1  0
 21  9  2  3
 22  8  1  6
 22 19  1  0
 23  2  1  0
 23 11  1  0
 23 22  1  6
 24  1  1  0
  2 24  1  6
 24  3  1  0
 24  5  1  0
 25  4  1  0
 25 13  1  0
 26 12  1  0
 19 26  1  1
M  END
>  <ID>  (1) 
conformer_0

$$$$
