
     RDKit          3D

 24 27  0  0  0  0  0  0  0  0999 V2000
   -9.8253   30.1827   -3.9734 C   0  0  0  0  0  0  0  0  0  0  0  0
   -9.6558   31.4561   -2.0328 C   0  0  2  0  0  0  0  0  0  0  0  0
   -4.0076   31.1904   -1.2196 C   0  0  0  0  0  0  0  0  0  0  0  0
   -4.5236   28.2579   -5.9112 C   0  0  2  0  0  0  0  0  0  0  0  0
   -8.3232   30.7236   -2.7812 C   0  0  1  0  0  0  0  0  0  0  0  0
  -11.4695   33.6451    1.8129 C   0  0  0  0  0  0  0  0  0  0  0  0
  -10.6149   31.0226   -3.4853 C   0  0  0  0  0  0  0  0  0  0  0  0
   -2.9375   30.0964   -2.3940 N   0  0  0  0  0  0  0  0  0  0  0  0
   -5.4335   27.4041   -7.9509 C   0  0  0  0  0  0  0  0  0  0  0  0
   -8.7842   29.9773   -4.1888 C   0  0  2  0  0  0  0  0  0  0  0  0
   -4.5466   29.7808   -3.6678 C   0  0  1  0  0  0  0  0  0  0  0  0
   -4.4112   27.9716   -7.6624 O   0  0  0  0  0  0  0  0  0  0  0  0
   -5.2144   31.2918   -1.7961 N   0  0  0  0  0  0  0  0  0  0  0  0
  -11.5337   33.6344    0.2810 C   0  0  0  0  0  0  0  0  0  0  0  0
   -3.9269   31.6731   -0.0430 N   0  0  0  0  0  0  0  0  0  0  0  0
  -10.3545   31.9954   -1.4648 C   0  0  0  0  0  0  0  0  0  0  0  0
  -10.8063   32.7750    0.1014 C   0  0  0  0  0  0  0  0  0  0  0  0
   -4.0753   29.1045   -4.3810 N   0  0  0  0  0  0  0  0  0  0  0  0
   -7.5773   29.3062   -5.0033 N   0  0  0  0  0  0  0  0  0  0  0  0
   -3.2711   28.4856   -5.3367 C   0  0  0  0  0  0  0  0  0  0  0  0
   -5.4498   30.6030   -2.5651 C   0  0  0  0  0  0  0  0  0  0  0  0
   -7.1528   30.1984   -3.5091 C   0  0  2  0  0  0  0  0  0  0  0  0
   -6.5922   29.5849   -4.4006 C   0  0  1  0  0  0  0  0  0  0  0  0
   -2.9649   30.1138   -2.5692 C   0  0  0  0  0  0  0  0  0  0  0  0
  5  2  1  6
  7  1  1  0
  7  2  1  0
 10  1  1  6
 10  5  1  0
  4 12  1  6
 12  9  1  0
 13  3  1  0
 14  6  1  0
 15  3  1  0
  2 16  1  6
 17 14  1  0
 17 16  1  0
 18  4  1  0
 18 11  1  0
 19 10  1  0
 20  4  1  0
 20 18  1  0
 11 21  1  1
 21 13  1  0
 22  5  1  0
 22 10  1  0
 23  4  1  0
 23 19  1  1
 22 23  1  1
 24  8  2  3
 24 11  1  0
M  END
>  <ID>  (1) 
conformer_0

$$$$
