
     RDKit          3D

 22 22  0  0  0  0  0  0  0  0999 V2000
  -10.6257   30.7315   -3.8035 C   0  0  0  0  0  0  0  0  0  0  0  0
   -9.9722   29.9229   -4.4122 C   0  0  0  0  0  0  0  0  0  0  0  0
   -9.5183   31.2344   -2.0573 C   0  0  0  0  0  0  0  0  0  0  0  0
   -8.3121   30.5344   -3.0888 C   0  0  0  0  0  0  0  0  0  0  0  0
   -4.8802   30.4807   -3.1172 C   0  0  0  0  0  0  0  0  0  0  0  0
   -4.4420   28.4720   -5.4686 C   0  0  0  0  0  0  0  0  0  0  0  0
   -8.1994   29.6883   -4.7482 C   0  0  0  0  0  0  0  0  0  0  0  0
  -11.3948   32.9958    0.3049 C   0  0  0  0  0  0  0  0  0  0  0  0
   -7.0738   30.4654   -3.2641 C   0  0  0  0  0  0  0  0  0  0  0  0
   -4.7130   27.9257   -7.0400 O   0  0  0  0  0  0  0  0  0  0  0  0
   -2.9568   29.7205   -3.4415 N   0  0  0  0  0  0  0  0  0  0  0  0
   -3.9521   31.9371   -0.0768 N   0  0  0  0  0  0  0  0  0  0  0  0
   -7.8190   29.2137   -5.4838 N   0  0  0  0  0  0  0  0  0  0  0  0
   -5.5617   27.6510   -7.6474 C   0  0  0  0  0  0  0  0  0  0  0  0
   -3.9234   31.2314   -1.3897 C   0  0  0  0  0  0  0  0  0  0  0  0
   -5.8727   29.6429   -4.3190 C   0  0  1  0  0  0  0  0  0  0  0  0
   -4.9577   31.4210   -1.9169 N   0  0  0  0  0  0  0  0  0  0  0  0
  -12.7071   33.0610    0.2479 O   0  0  0  0  0  0  0  0  0  0  0  0
   -2.9710   29.8901   -2.8371 C   0  0  0  0  0  0  0  0  0  0  0  0
  -10.3464   31.6117   -2.0687 C   0  0  0  0  0  0  0  0  0  0  0  0
   -2.8120   30.5529   -1.3180 N   0  0  0  0  0  0  0  0  0  0  0  0
  -10.6946   32.6776   -0.2175 C   0  0  0  0  0  0  0  0  0  0  0  0
  2  1  2  0
  4  3  1  0
  7  2  1  0
  7  4  2  0
  9  4  1  0
 10  6  1  0
 13  7  1  0
 14 10  1  0
 15 12  2  3
 16  5  1  0
 16  6  1  1
 16  9  1  0
 17  5  2  3
 17 15  1  0
 18  8  1  0
 19 11  3  0
 20  1  1  0
 20  3  2  0
 21 15  1  0
 21 19  1  0
 22  8  2  3
 22 20  1  0
M  END
>  <ID>  (1) 
conformer_0

$$$$
