
     RDKit          3D

 22 24  0  0  0  0  0  0  0  0999 V2000
  -10.4572   30.9539   -3.3792 C   0  0  2  0  0  0  0  0  0  0  0  0
   -3.3071   29.9349   -3.1423 C   0  0  1  0  0  0  0  0  0  0  0  0
   -9.6327   29.9276   -3.8973 C   0  0  0  0  0  0  0  0  0  0  0  0
   -7.3956   30.3302   -3.1940 C   0  0  0  0  0  0  0  0  0  0  0  0
   -8.7323   30.9743   -2.5278 C   0  0  0  0  0  0  0  0  0  0  0  0
   -4.0484   28.7974   -5.6094 C   0  0  0  0  0  0  0  0  0  0  0  0
   -7.8897   29.6069   -4.1903 C   0  0  0  0  0  0  0  0  0  0  0  0
  -11.0699   34.0689    0.8911 C   0  0  0  0  0  0  0  0  0  0  0  0
   -2.9314   30.6996   -1.0948 N   0  0  0  0  0  0  0  0  0  0  0  0
   -5.0792   30.5814   -2.8867 C   0  0  1  0  0  0  0  0  0  0  0  0
   -3.4853   28.1796   -5.1342 O   0  0  0  0  0  0  0  0  0  0  0  0
  -12.8758   33.0500    0.2257 O   0  0  0  0  0  0  0  0  0  0  0  0
   -4.0099   31.7941    0.0849 N   0  0  0  0  0  0  0  0  0  0  0  0
   -5.5143   27.5937   -7.3792 C   0  0  0  0  0  0  0  0  0  0  0  0
  -11.5414   33.0962    0.3266 C   0  0  0  0  0  0  0  0  0  0  0  0
   -5.0954   31.4360   -1.8231 N   0  0  0  0  0  0  0  0  0  0  0  0
   -7.5152   29.2213   -4.8465 N   0  0  0  0  0  0  0  0  0  0  0  0
  -10.0684   31.5945   -1.9034 C   0  0  0  0  0  0  0  0  0  0  0  0
   -3.6338   30.9168   -1.4738 C   0  0  0  0  0  0  0  0  0  0  0  0
   -4.5729   27.9437   -7.1448 O   0  0  0  0  0  0  0  0  0  0  0  0
  -10.4806   32.2882   -0.6717 C   0  0  0  0  0  0  0  0  0  0  0  0
   -2.8777   29.9583   -3.1919 N   0  0  0  0  0  0  0  0  0  0  0  0
  1  3  1  1
  5  1  1  0
  5  4  2  0
  6  2  1  0
  7  3  1  0
  7  4  1  0
 10  2  1  0
 10  4  1  0
 11  6  2  0
 15  8  1  0
 15 12  1  0
 10 16  1  1
 17  7  2  3
 18  1  1  0
 18  5  1  0
 19  2  1  0
 19  9  1  0
 19 13  1  0
 19 16  1  0
 20  6  1  0
 20 14  1  0
 21 15  2  0
 21 18  2  0
  2 22  1  6
M  END
>  <ID>  (1) 
conformer_0

$$$$
