
     RDKit          3D

 21 22  0  0  0  0  0  0  0  0999 V2000
   -7.0076   29.9826   -3.7822 C   0  0  0  0  0  0  0  0  0  0  0  0
   -8.1706   30.6937   -2.9908 C   0  0  0  0  0  0  0  0  0  0  0  0
   -4.3822   30.2020   -3.4064 C   0  0  0  0  0  0  0  0  0  0  0  0
  -10.1902   29.9828   -4.2305 C   0  0  0  0  0  0  0  0  0  0  0  0
  -11.0110   33.6569    1.5291 C   0  0  0  0  0  0  0  0  0  0  0  0
   -4.3396   28.4838   -5.5233 C   0  0  0  0  0  0  0  0  0  0  0  0
   -9.9591   30.8935   -3.0705 C   0  0  0  0  0  0  0  0  0  0  0  0
   -7.4167   29.7829   -4.3289 C   0  0  0  0  0  0  0  0  0  0  0  0
   -8.3329   28.8771   -5.5744 N   0  0  0  0  0  0  0  0  0  0  0  0
   -3.4238   31.0321   -1.3078 N   0  0  0  0  0  0  0  0  0  0  0  0
   -4.7750   27.8475   -7.3085 O   0  0  0  0  0  0  0  0  0  0  0  0
   -4.3152   31.2268   -1.4908 C   0  0  0  0  0  0  0  0  0  0  0  0
  -12.5736   33.1640    0.3353 O   0  0  0  0  0  0  0  0  0  0  0  0
   -9.7507   31.5182   -1.9217 C   0  0  0  0  0  0  0  0  0  0  0  0
   -4.9236   30.5034   -3.1284 C   0  0  0  0  0  0  0  0  0  0  0  0
   -5.5711   27.7557   -7.9635 C   0  0  0  0  0  0  0  0  0  0  0  0
  -11.4297   32.9788    0.4422 C   0  0  0  0  0  0  0  0  0  0  0  0
   -2.7908   30.1781   -2.4804 C   0  0  0  0  0  0  0  0  0  0  0  0
   -3.7252   28.9519   -4.6584 O   0  0  0  0  0  0  0  0  0  0  0  0
  -10.3888   32.2844   -0.5871 C   0  0  0  0  0  0  0  0  0  0  0  0
   -9.3705   29.3559   -4.9396 C   0  0  0  0  0  0  0  0  0  0  0  0
  2  1  2  0
  7  2  1  0
  7  4  1  0
  8  1  1  0
  9  8  1  0
 11  6  1  0
 12 10  2  0
 14  7  1  0
 15  1  1  0
 15  3  2  0
 15 12  1  0
 16 11  1  0
 17  5  1  0
 17 13  1  0
 18  3  1  0
 18 10  1  0
 19  3  1  0
 19  6  1  0
 20 14  2  0
 20 17  2  0
 21  4  1  0
 21  9  1  0
M  END
>  <ID>  (1) 
conformer_0

$$$$
