
     RDKit          3D

 29 32  0  0  0  0  0  0  0  0999 V2000
  -10.5699   30.8206   -3.9005 C   0  0  0  0  0  0  0  0  0  0  0  0
   -9.6633   29.8314   -4.5142 C   0  0  0  0  0  0  0  0  0  0  0  0
   -3.8948   31.2889   -1.1796 C   0  0  0  0  0  0  0  0  0  0  0  0
  -10.3833   31.8553   -1.8080 C   0  0  0  0  0  0  0  0  0  0  0  0
  -11.5418   33.0848    2.2554 C   0  0  0  0  0  0  0  0  0  0  0  0
  -10.5229   32.3424   -0.3785 C   0  0  0  0  0  0  0  0  0  0  0  0
   -2.8448   30.5273   -1.4027 N   0  0  0  0  0  0  0  0  0  0  0  0
   -4.0074   28.6622   -5.4370 C   0  0  0  0  0  0  0  0  0  0  0  0
   -8.7944   29.6094   -4.7870 C   0  0  0  0  0  0  0  0  0  0  0  0
   -4.8916   27.7665   -7.8379 O   0  0  0  0  0  0  0  0  0  0  0  0
   -5.5637   30.7220   -2.6617 C   0  0  0  0  0  0  0  0  0  0  0  0
   -3.3734   28.1980   -4.8030 O   0  0  0  0  0  0  0  0  0  0  0  0
   -5.4741   27.7819   -6.7206 C   0  0  0  0  0  0  0  0  0  0  0  0
  -11.1667   33.8961    1.0921 C   0  0  0  0  0  0  0  0  0  0  0  0
   -9.0409   31.5550   -1.9494 C   0  0  0  0  0  0  0  0  0  0  0  0
  -13.0429   32.8676    0.0512 O   0  0  0  0  0  0  0  0  0  0  0  0
   -9.2569   30.7146   -3.0006 C   0  0  0  0  0  0  0  0  0  0  0  0
  -11.5970   32.9965    0.1893 C   0  0  0  0  0  0  0  0  0  0  0  0
   -7.5819   29.1156   -5.4640 N   0  0  0  0  0  0  0  0  0  0  0  0
   -4.8061   31.5368   -1.7827 N   0  0  0  0  0  0  0  0  0  0  0  0
   -5.3580   29.0819   -4.9177 C   0  0  0  0  0  0  0  0  0  0  0  0
   -2.9370   30.0958   -2.3257 C   0  0  0  0  0  0  0  0  0  0  0  0
   -3.9919   31.8771    0.2312 N   0  0  0  0  0  0  0  0  0  0  0  0
   -4.7313   30.1160   -3.4762 C   0  0  0  0  0  0  0  0  0  0  0  0
   -4.2691   29.8356   -3.4560 C   0  0  0  0  0  0  0  0  0  0  0  0
   -5.6241   27.6410   -8.8368 C   0  0  0  0  0  0  0  0  0  0  0  0
   -7.4901   30.0900   -3.6822 C   0  0  0  0  0  0  0  0  0  0  0  0
   -7.3091   30.9429   -2.7644 C   0  0  0  0  0  0  0  0  0  0  0  0
   -6.7546   29.3658   -4.4409 C   0  0  0  0  0  0  0  0  0  0  0  0
  2  1  1  0
  6  4  1  0
  7  3  2  0
  9  2  1  0
 12  8  1  0
 13  8  1  0
 13 10  1  0
 14  5  1  0
 15  4  1  0
 17  1  1  0
 17  2  1  0
 17 15  1  0
 18  6  1  0
 18 14  1  0
 18 16  1  0
 19  9  1  0
 20  3  1  0
 20 11  1  0
 21  8  1  0
 22  7  1  0
 23  3  1  0
 24 11  2  0
 24 21  1  0
 25 22  1  0
 25 24  1  0
 26 10  1  0
 27  9  1  0
 28 11  1  0
 28 27  2  0
 29 19  1  0
 29 21  2  0
 29 27  1  0
M  END
>  <ID>  (1) 
conformer_0

$$$$
