
     RDKit          3D

 21 21  0  0  0  0  0  0  0  0999 V2000
   -9.7787   31.4949   -2.1360 C   0  0  0  0  0  0  0  0  0  0  0  0
   -9.7378   29.9869   -4.1526 C   0  0  0  0  0  0  0  0  0  0  0  0
  -10.4857   30.8871   -3.6171 C   0  0  0  0  0  0  0  0  0  0  0  0
   -4.8668   30.7815   -2.6647 C   0  0  0  0  0  0  0  0  0  0  0  0
   -4.6452   28.5317   -5.4703 C   0  0  0  0  0  0  0  0  0  0  0  0
   -8.2711   30.7683   -2.9234 C   0  0  0  0  0  0  0  0  0  0  0  0
   -3.0990   30.6414   -1.5846 N   0  0  0  0  0  0  0  0  0  0  0  0
   -7.7059   29.7745   -4.2005 C   0  0  0  0  0  0  0  0  0  0  0  0
   -4.9003   27.8221   -7.9534 O   0  0  0  0  0  0  0  0  0  0  0  0
   -6.4918   30.0837   -3.7587 C   0  0  0  0  0  0  0  0  0  0  0  0
  -11.1330   32.8697    1.3729 C   0  0  0  0  0  0  0  0  0  0  0  0
   -5.5941   27.4606   -7.4850 C   0  0  0  0  0  0  0  0  0  0  0  0
  -11.6580   33.0373    0.5744 C   0  0  0  0  0  0  0  0  0  0  0  0
   -2.8728   29.9484   -2.6353 C   0  0  0  0  0  0  0  0  0  0  0  0
  -10.3313   32.0579   -1.1531 C   0  0  0  0  0  0  0  0  0  0  0  0
   -3.6629   28.5650   -4.9872 O   0  0  0  0  0  0  0  0  0  0  0  0
   -7.6129   29.2450   -4.9995 N   0  0  0  0  0  0  0  0  0  0  0  0
   -4.6642   30.5618   -2.9431 C   0  0  0  0  0  0  0  0  0  0  0  0
   -3.8954   31.9180   -0.0339 N   0  0  0  0  0  0  0  0  0  0  0  0
   -3.9085   31.3225   -1.0605 C   0  0  0  0  0  0  0  0  0  0  0  0
   -5.8122   28.6737   -5.6285 N   0  0  0  0  0  0  0  0  0  0  0  0
  3  1  1  0
  3  2  1  0
  6  1  2  3
  8  6  1  0
 10  8  2  0
 12  5  1  0
 12  9  1  0
 13 11  1  0
 14  7  2  0
 15  1  1  0
 15 13  1  0
 16  5  2  0
 17  8  1  0
 18  4  1  0
 18 10  2  0
 18 14  1  0
 20  4  2  0
 20  7  1  0
 20 19  1  0
 21  5  1  0
 21 17  1  0
M  END
>  <ID>  (1) 
conformer_0

$$$$
