
     RDKit          3D

 26 29  0  0  0  0  0  0  0  0999 V2000
   -7.3762   30.6041   -3.1540 C   0  0  0  0  0  0  0  0  0  0  0  0
   -6.7512   29.6780   -4.0783 C   0  0  0  0  0  0  0  0  0  0  0  0
   -4.4639   29.6447   -3.8542 C   0  0  0  0  0  0  0  0  0  0  0  0
  -10.0541   31.3324   -2.3920 C   0  0  1  0  0  0  0  0  0  0  0  0
   -9.2928   29.8697   -3.9936 C   0  0  2  0  0  0  0  0  0  0  0  0
   -4.5094   27.8825   -5.6778 C   0  0  0  0  0  0  0  0  0  0  0  0
   -2.9910   30.5460   -1.7409 N   0  0  0  0  0  0  0  0  0  0  0  0
   -9.4274   29.9296   -5.0678 C   0  0  0  0  0  0  0  0  0  0  0  0
  -11.3339   33.2165    2.1077 C   0  0  0  0  0  0  0  0  0  0  0  0
   -3.9435   31.3199   -1.3518 C   0  0  0  0  0  0  0  0  0  0  0  0
   -4.2670   27.9305   -6.7930 O   0  0  0  0  0  0  0  0  0  0  0  0
  -11.4125   33.1523    0.6579 C   0  0  0  0  0  0  0  0  0  0  0  0
   -8.5997   31.0526   -2.6308 C   0  0  1  0  0  0  0  0  0  0  0  0
   -5.6550   27.4990   -8.3370 C   0  0  0  0  0  0  0  0  0  0  0  0
   -4.1111   32.0467   -0.1171 N   0  0  0  0  0  0  0  0  0  0  0  0
   -3.8396   28.9885   -4.3476 N   0  0  0  0  0  0  0  0  0  0  0  0
   -4.9126   31.2566   -2.0390 N   0  0  0  0  0  0  0  0  0  0  0  0
  -12.7433   32.9960    0.4126 O   0  0  0  0  0  0  0  0  0  0  0  0
   -8.2542   29.6253   -5.5844 N   0  0  0  0  0  0  0  0  0  0  0  0
   -5.3950   30.5363   -2.8802 C   0  0  0  0  0  0  0  0  0  0  0  0
   -9.9328   31.9240   -1.4742 C   0  0  0  0  0  0  0  0  0  0  0  0
  -10.5844   32.7106   -0.0694 C   0  0  0  0  0  0  0  0  0  0  0  0
   -3.0622   30.0276   -2.7071 C   0  0  0  0  0  0  0  0  0  0  0  0
   -7.5657   29.6777   -4.6542 C   0  0  0  0  0  0  0  0  0  0  0  0
   -2.8588   28.5187   -5.0878 C   0  0  0  0  0  0  0  0  0  0  0  0
  -10.4733   30.4498   -4.0842 C   0  0  0  0  0  0  0  0  0  0  0  0
  2  1  1  0
  5  8  1  6
 10  7  2  0
 11  6  1  0
 12  9  1  0
 13  1  1  6
 13  4  1  0
 13  5  1  0
 14 11  1  0
 15 10  1  0
 16  3  1  0
 17 10  1  0
 18 12  1  0
 19  8  1  0
 20  1  2  3
 20  3  1  0
 20 17  1  0
  4 21  1  6
 22 12  2  0
 22 21  2  0
 23  3  2  0
 23  7  1  0
 24  2  1  0
 24  5  1  0
 24 19  1  0
 25  6  1  0
 25 16  1  0
 26  4  1  0
 26  5  1  0
M  END
>  <ID>  (1) 
conformer_0

$$$$
