
     RDKit          3D

 27 28  0  0  0  0  0  0  0  0999 V2000
   -9.4746   29.4985   -4.3071 C   0  0  0  0  0  0  0  0  0  0  0  0
  -10.6746   30.5179   -4.0114 C   0  0  0  0  0  0  0  0  0  0  0  0
   -9.3140   30.4761   -2.9140 C   0  0  0  0  0  0  0  0  0  0  0  0
   -3.7691   30.9915   -1.6505 C   0  0  0  0  0  0  0  0  0  0  0  0
   -6.7990   30.0745   -3.6619 C   0  0  0  0  0  0  0  0  0  0  0  0
   -4.9376   28.5388   -5.3804 C   0  0  0  0  0  0  0  0  0  0  0  0
   -6.7981   29.8898   -3.7534 C   0  0  0  0  0  0  0  0  0  0  0  0
   -2.8218   30.2396   -1.8855 N   0  0  0  0  0  0  0  0  0  0  0  0
   -8.0204   30.9169   -2.7891 C   0  0  0  0  0  0  0  0  0  0  0  0
   -4.6855   28.0352   -7.4050 O   0  0  0  0  0  0  0  0  0  0  0  0
   -3.7077   31.7984   -0.2247 N   0  0  0  0  0  0  0  0  0  0  0  0
   -3.7148   27.8279   -5.0393 O   0  0  0  0  0  0  0  0  0  0  0  0
  -11.7239   33.1993    0.6497 C   0  0  0  0  0  0  0  0  0  0  0  0
   -7.2249   29.1457   -4.8445 N   0  0  0  0  0  0  0  0  0  0  0  0
   -3.0930   29.6556   -3.1668 C   0  0  0  0  0  0  0  0  0  0  0  0
  -12.9412   33.0362    0.2713 O   0  0  0  0  0  0  0  0  0  0  0  0
   -5.5060   27.7965   -8.3225 C   0  0  0  0  0  0  0  0  0  0  0  0
   -4.6704   30.0362   -3.3710 C   0  0  0  0  0  0  0  0  0  0  0  0
  -11.2176   32.8524    1.6647 C   0  0  0  0  0  0  0  0  0  0  0  0
   -4.7914   31.3611   -1.8740 N   0  0  0  0  0  0  0  0  0  0  0  0
  -10.6622   34.7090    0.4307 C   0  0  0  0  0  0  0  0  0  0  0  0
   -4.9170   30.2985   -3.0185 C   0  0  0  0  0  0  0  0  0  0  0  0
  -10.1602   31.7501   -2.4148 C   0  0  0  0  0  0  0  0  0  0  0  0
   -8.5747   29.5734   -4.4942 C   0  0  0  0  0  0  0  0  0  0  0  0
   -3.0004   28.6606   -5.5660 C   0  0  0  0  0  0  0  0  0  0  0  0
   -9.9868   31.8280   -1.2309 C   0  0  0  0  0  0  0  0  0  0  0  0
  -10.6026   32.8389   -0.3592 C   0  0  0  0  0  0  0  0  0  0  0  0
  2  1  1  0
  3  1  1  0
  3  2  1  0
  7  5  1  0
  8  4  2  0
  9  3  1  0
  9  5  1  0
 10  6  1  0
 11  4  1  0
 12  6  1  0
 14  7  1  0
 15  8  1  0
 16 13  1  0
 17 10  1  0
 18 15  2  0
 19 13  1  0
 20  4  1  0
 21 13  1  0
 22 18  1  0
 22 20  1  0
 23  3  1  0
 24  1  1  0
 24  6  1  0
 25 12  1  0
 25 15  1  0
 26 23  1  0
 27 13  1  0
 27 26  1  0
M  END
>  <ID>  (1) 
conformer_0

$$$$
