
     RDKit          3D

 27 29  0  0  0  0  0  0  0  0999 V2000
  -10.6321   32.8461   -0.2323 C   0  0  0  0  0  0  0  0  0  0  0  0
   -9.8754   29.4808   -4.1622 C   0  0  0  0  0  0  0  0  0  0  0  0
   -2.5492   29.8435   -2.4409 C   0  0  0  0  0  0  0  0  0  0  0  0
  -10.3909   32.0060   -1.8537 C   0  0  0  0  0  0  0  0  0  0  0  0
   -5.0820   27.9642   -6.3480 C   0  0  0  0  0  0  0  0  0  0  0  0
  -10.5354   30.9766   -3.5952 C   0  0  1  0  0  0  0  0  0  0  0  0
  -11.0168   34.4322    1.1335 C   0  0  0  0  0  0  0  0  0  0  0  0
   -6.9506   29.5183   -4.3683 C   0  0  0  0  0  0  0  0  0  0  0  0
   -5.6031   27.4207   -8.5666 C   0  0  0  0  0  0  0  0  0  0  0  0
   -2.7626   30.5122   -1.3237 N   0  0  0  0  0  0  0  0  0  0  0  0
   -4.1754   29.7760   -3.6278 C   0  0  2  0  0  0  0  0  0  0  0  0
   -9.5476   31.5059   -1.8979 C   0  0  0  0  0  0  0  0  0  0  0  0
   -4.9218   28.0173   -7.5856 O   0  0  0  0  0  0  0  0  0  0  0  0
   -3.7581   31.7137   -0.1675 N   0  0  0  0  0  0  0  0  0  0  0  0
   -5.0372   31.3538   -1.8957 N   0  0  0  0  0  0  0  0  0  0  0  0
  -12.7003   32.9327    0.3561 O   0  0  0  0  0  0  0  0  0  0  0  0
  -11.5768   33.2626    0.2260 C   0  0  2  0  0  0  0  0  0  0  0  0
   -3.5077   28.1058   -4.9887 O   0  0  0  0  0  0  0  0  0  0  0  0
   -3.9559   31.0782   -1.5081 C   0  0  0  0  0  0  0  0  0  0  0  0
   -8.9934   30.5345   -3.2124 C   0  0  0  0  0  0  0  0  0  0  0  0
   -7.6433   29.1243   -4.7968 N   0  0  0  0  0  0  0  0  0  0  0  0
   -7.5267   30.6486   -3.0962 C   0  0  0  0  0  0  0  0  0  0  0  0
   -3.0617   29.6055   -3.2519 N   0  0  0  0  0  0  0  0  0  0  0  0
   -5.4052   30.4970   -2.8875 C   0  0  1  0  0  0  0  0  0  0  0  0
   -4.2335   28.9014   -5.3708 C   0  0  1  0  0  0  0  0  0  0  0  0
   -8.8525   29.5027   -4.2373 C   0  0  0  0  0  0  0  0  0  0  0  0
   -6.1399   29.7879   -4.3538 C   0  0  0  0  0  0  0  0  0  0  0  0
  4  1  1  0
  6  2  1  1
  6  4  1  0
 10  3  1  0
 12  4  2  3
 13  5  1  0
 13  9  1  0
 17  1  1  0
 17  7  1  1
 17 16  1  0
 19 10  2  0
 19 14  1  0
 19 15  1  0
 20  6  1  0
 21  8  2  0
 22  8  1  0
 22 20  1  0
 23  3  2  0
 11 23  1  1
 24 11  1  0
 24 15  1  0
 25  5  1  0
 25 11  1  0
 25 18  1  1
 26  2  1  0
 26 20  2  0
 26 21  1  0
 27  8  1  0
 24 27  1  6
M  END
>  <ID>  (1) 
conformer_0

$$$$
