
     RDKit          3D

 25 28  0  0  0  0  0  0  0  0999 V2000
   -7.8182   30.8824   -2.9060 C   0  0  2  0  0  0  0  0  0  0  0  0
   -9.1798   29.9000   -3.9044 C   0  0  1  0  0  0  0  0  0  0  0  0
   -6.9361   30.0691   -3.6732 C   0  0  1  0  0  0  0  0  0  0  0  0
   -3.8909   31.0699   -1.5481 C   0  0  0  0  0  0  0  0  0  0  0  0
   -4.9251   28.2082   -5.7255 C   0  0  2  0  0  0  0  0  0  0  0  0
  -10.3966   30.1152   -4.3516 C   0  0  0  0  0  0  0  0  0  0  0  0
   -2.8496   29.8765   -2.7712 C   0  0  0  0  0  0  0  0  0  0  0  0
   -2.7924   30.1215   -2.2231 N   0  0  0  0  0  0  0  0  0  0  0  0
   -5.5239   27.3650   -7.9876 C   0  0  0  0  0  0  0  0  0  0  0  0
   -5.1088   31.3947   -1.9358 N   0  0  0  0  0  0  0  0  0  0  0  0
   -9.3272   31.3623   -2.1651 C   0  0  0  0  0  0  0  0  0  0  0  0
  -11.9124   33.1996    0.7993 C   0  0  0  0  0  0  0  0  0  0  0  0
   -4.5636   28.1193   -7.3831 O   0  0  0  0  0  0  0  0  0  0  0  0
   -8.0000   29.6952   -4.5540 C   0  0  0  0  0  0  0  0  0  0  0  0
   -3.9089   31.7383   -0.1561 N   0  0  0  0  0  0  0  0  0  0  0  0
  -10.2939   31.2924   -2.8130 C   0  0  0  0  0  0  0  0  0  0  0  0
   -5.2552   30.5572   -2.8859 C   0  0  2  0  0  0  0  0  0  0  0  0
  -11.1770   33.0512    1.5940 C   0  0  0  0  0  0  0  0  0  0  0  0
   -4.1766   29.2444   -4.4248 N   0  0  0  0  0  0  0  0  0  0  0  0
   -7.4984   29.4422   -5.2642 N   0  0  0  0  0  0  0  0  0  0  0  0
  -13.0240   33.0899    0.4440 O   0  0  0  0  0  0  0  0  0  0  0  0
   -3.3512   28.9543   -5.7549 C   0  0  0  0  0  0  0  0  0  0  0  0
   -4.3409   29.7150   -3.8175 C   0  0  0  0  0  0  0  0  0  0  0  0
  -10.4315   31.8768   -1.0140 C   0  0  0  0  0  0  0  0  0  0  0  0
  -10.8359   32.6486   -0.3692 C   0  0  0  0  0  0  0  0  0  0  0  0
  2  1  1  0
  3  1  1  0
  2  6  1  6
  8  4  2  0
  8  7  1  0
 10  4  1  0
  1 11  1  1
  5 13  1  6
 13  9  1  0
 14  2  1  0
  3 14  1  6
 15  4  1  0
 16  6  1  0
 16 11  1  0
 17  3  1  0
 17 10  1  6
 18 12  2  3
 19  5  1  0
 20 14  2  3
 21 12  1  0
 22  5  1  0
 22 19  1  0
 23  7  2  0
 23 17  1  0
 23 19  1  0
 24 11  1  0
 25 12  1  0
 25 24  2  3
M  END
>  <ID>  (1) 
conformer_0

$$$$
