
     RDKit          3D

 28 29  0  0  0  0  0  0  0  0999 V2000
   -7.7159   30.8115   -3.1205 C   0  0  0  0  0  0  0  0  0  0  0  0
   -9.3563   29.7236   -4.0560 C   0  0  0  0  0  0  0  0  0  0  0  0
  -11.4629   34.1637    1.3739 C   0  0  0  0  0  0  0  0  0  0  0  0
   -6.7203   30.0343   -3.7916 C   0  0  0  0  0  0  0  0  0  0  0  0
   -3.7552   29.7894   -3.9484 C   0  0  0  0  0  0  0  0  0  0  0  0
   -4.6314   28.4140   -5.9649 C   0  0  0  0  0  0  0  0  0  0  0  0
   -8.9470   31.1422   -2.5261 C   0  0  0  0  0  0  0  0  0  0  0  0
   -7.0992   29.5941   -3.9653 C   0  0  0  0  0  0  0  0  0  0  0  0
   -3.7932   31.1917   -1.4325 N   0  0  0  0  0  0  0  0  0  0  0  0
   -5.3347   27.6078   -8.7520 C   0  0  0  0  0  0  0  0  0  0  0  0
   -3.9765   27.8512   -5.0201 O   0  0  0  0  0  0  0  0  0  0  0  0
   -4.9016   30.2764   -3.2816 C   0  0  1  0  0  0  0  0  0  0  0  0
   -3.8910   31.3657   -1.2286 C   0  0  0  0  0  0  0  0  0  0  0  0
   -4.4814   28.0078   -7.2954 O   0  0  0  0  0  0  0  0  0  0  0  0
  -10.3903   31.3274   -2.9200 C   0  0  1  0  0  0  0  0  0  0  0  0
   -4.1344   32.1058   -0.1059 N   0  0  0  0  0  0  0  0  0  0  0  0
  -11.4484   32.9350   -0.0351 C   0  0  2  0  0  0  0  0  0  0  0  0
  -12.8633   33.0446   -0.0388 O   0  0  0  0  0  0  0  0  0  0  0  0
   -7.6958   29.1754   -5.0299 N   0  0  0  0  0  0  0  0  0  0  0  0
  -10.5360   30.3148   -4.3607 C   0  0  0  0  0  0  0  0  0  0  0  0
   -2.5644   29.9950   -2.3793 C   0  0  0  0  0  0  0  0  0  0  0  0
  -10.7033   32.4567   -0.2871 C   0  0  0  0  0  0  0  0  0  0  0  0
  -10.0128   31.7336   -1.6219 C   0  0  0  0  0  0  0  0  0  0  0  0
   -2.5500   30.2203   -2.6118 N   0  0  0  0  0  0  0  0  0  0  0  0
   -8.9016   29.6883   -4.6635 C   0  0  0  0  0  0  0  0  0  0  0  0
   -2.8548   28.8890   -5.5298 C   0  0  0  0  0  0  0  0  0  0  0  0
   -4.9784   30.7233   -2.7360 C   0  0  0  0  0  0  0  0  0  0  0  0
  -11.2726   32.7123    2.0115 C   0  0  0  0  0  0  0  0  0  0  0  0
  4  1  2  0
  7  1  2  0
  8  4  1  0
 11  6  1  0
 12  4  1  0
 12  5  1  6
 13  9  1  0
 14  6  1  0
 14 10  1  0
 15  7  1  0
 16 13  1  0
 17  3  1  0
 17 18  1  1
 19  8  1  0
 20  2  1  0
 15 20  1  1
 22 17  1  0
 23  7  1  0
 23 15  1  0
 23 22  1  0
 24  5  1  0
 24 21  1  0
 25  2  1  0
 25 19  1  0
 26 11  1  0
 26 21  1  0
 27  9  2  3
 27 12  1  0
 28  3  1  0
M  END
>  <ID>  (1) 
conformer_0

$$$$
