
     RDKit          3D

 28 30  0  0  0  0  0  0  0  0999 V2000
  -10.2249   32.4341   -1.1123 C   0  0  0  0  0  0  0  0  0  0  0  0
  -10.6589   32.3418    0.3481 C   0  0  0  0  0  0  0  0  0  0  0  0
   -9.8175   29.5969   -4.2285 C   0  0  0  0  0  0  0  0  0  0  0  0
   -5.4738   30.8294   -2.4993 C   0  0  0  0  0  0  0  0  0  0  0  0
  -10.5611   30.4916   -4.2095 C   0  0  0  0  0  0  0  0  0  0  0  0
   -3.3258   28.8896   -5.5158 C   0  0  0  0  0  0  0  0  0  0  0  0
   -7.1664   29.7928   -4.0816 C   0  0  0  0  0  0  0  0  0  0  0  0
   -9.4897   31.3737   -1.7198 C   0  0  1  0  0  0  0  0  0  0  0  0
   -5.1587   27.5725   -8.2984 C   0  0  0  0  0  0  0  0  0  0  0  0
   -9.9770   31.2023   -2.7733 C   0  0  0  0  0  0  0  0  0  0  0  0
   -2.7507   30.5913   -1.2621 N   0  0  0  0  0  0  0  0  0  0  0  0
   -4.0085   32.0410   -0.2537 N   0  0  0  0  0  0  0  0  0  0  0  0
   -4.5259   28.0275   -7.3114 O   0  0  0  0  0  0  0  0  0  0  0  0
   -3.9683   31.4104   -1.1817 C   0  0  0  0  0  0  0  0  0  0  0  0
  -12.8658   33.2140    0.4531 O   0  0  0  0  0  0  0  0  0  0  0  0
  -11.7755   33.3687    0.8360 C   0  0  0  0  0  0  0  0  0  0  0  0
   -8.2436   30.8430   -2.8624 C   0  0  0  0  0  0  0  0  0  0  0  0
   -7.8073   29.3141   -5.0214 N   0  0  0  0  0  0  0  0  0  0  0  0
   -7.0459   30.3522   -3.0810 C   0  0  0  0  0  0  0  0  0  0  0  0
   -2.6634   30.0654   -2.1667 C   0  0  0  0  0  0  0  0  0  0  0  0
   -3.2435   29.8162   -3.4332 N   0  0  0  0  0  0  0  0  0  0  0  0
   -8.8917   29.5930   -4.5570 C   0  0  0  0  0  0  0  0  0  0  0  0
   -5.0020   31.1855   -2.0878 N   0  0  0  0  0  0  0  0  0  0  0  0
   -4.9132   28.1266   -6.0430 C   0  0  0  0  0  0  0  0  0  0  0  0
   -5.6490   29.4072   -4.2803 C   0  0  0  0  0  0  0  0  0  0  0  0
  -11.2773   34.1097    1.0505 C   0  0  0  0  0  0  0  0  0  0  0  0
   -4.3011   29.9702   -3.5393 C   0  0  1  0  0  0  0  0  0  0  0  0
   -3.4005   28.1443   -5.9782 O   0  0  0  0  0  0  0  0  0  0  0  0
  2  1  2  3
  5  3  1  0
  8  1  1  0
 10  5  1  0
  8 10  1  6
 13  9  1  0
 14 11  2  0
 14 12  1  0
 16  2  1  0
 16 15  1  0
 17  8  1  0
 18  7  1  0
 19  4  2  0
 19  7  1  0
 19 17  1  0
 20 11  1  0
 21  6  1  0
 21 20  1  0
 22  3  1  0
 22 18  1  0
 23  4  1  0
 23 14  1  0
 24 13  1  0
 25  7  2  0
 26 16  2  3
 27  4  1  0
 27 21  1  1
 27 25  1  0
 28  6  1  0
 28 24  1  0
M  END
>  <ID>  (1) 
conformer_0

$$$$
