
     RDKit          3D

 28 30  0  0  0  0  0  0  0  0999 V2000
   -7.6909   30.0573   -3.7666 C   0  0  0  0  0  0  0  0  0  0  0  0
   -8.5441   31.3880   -2.3655 C   0  0  0  0  0  0  0  0  0  0  0  0
   -3.9101   29.6691   -3.7194 C   0  0  1  0  0  0  0  0  0  0  0  0
   -9.6333   30.8611   -2.8223 C   0  0  1  0  0  0  0  0  0  0  0  0
   -8.3047   29.5983   -4.7484 C   0  0  0  0  0  0  0  0  0  0  0  0
   -9.7903   30.1583   -4.3253 C   0  0  2  0  0  0  0  0  0  0  0  0
   -2.9292   30.4571   -1.5774 N   0  0  0  0  0  0  0  0  0  0  0  0
   -5.6180   27.6741   -5.9248 C   0  0  0  0  0  0  0  0  0  0  0  0
   -3.3182   28.1053   -5.5589 O   0  0  0  0  0  0  0  0  0  0  0  0
   -5.6269   31.2001   -2.0783 N   0  0  0  0  0  0  0  0  0  0  0  0
   -5.2768   30.5024   -2.8427 C   0  0  2  0  0  0  0  0  0  0  0  0
  -11.6856   33.1868    0.8163 C   0  0  0  0  0  0  0  0  0  0  0  0
   -4.0729   31.8776   -0.1071 N   0  0  0  0  0  0  0  0  0  0  0  0
  -12.8445   33.0885    0.4747 O   0  0  0  0  0  0  0  0  0  0  0  0
   -4.6335   29.7364   -3.7401 C   0  0  0  0  0  0  0  0  0  0  0  0
  -10.2147   32.7273   -1.2535 C   0  0  0  0  0  0  0  0  0  0  0  0
   -5.6462   28.4079   -6.1256 N   0  0  0  0  0  0  0  0  0  0  0  0
   -3.9021   31.1317   -1.3154 C   0  0  0  0  0  0  0  0  0  0  0  0
   -5.7735   27.4097   -8.1239 C   0  0  0  0  0  0  0  0  0  0  0  0
   -5.0179   27.6015   -8.2588 O   0  0  0  0  0  0  0  0  0  0  0  0
   -7.8348   29.2284   -5.2418 N   0  0  0  0  0  0  0  0  0  0  0  0
   -7.2718   30.5274   -3.2592 C   0  0  0  0  0  0  0  0  0  0  0  0
  -10.2414   31.6546   -1.4939 C   0  0  0  0  0  0  0  0  0  0  0  0
  -10.8752   31.2660   -3.6034 C   0  0  0  0  0  0  0  0  0  0  0  0
   -2.6748   29.9117   -2.4123 C   0  0  0  0  0  0  0  0  0  0  0  0
  -11.1789   34.3508    1.0941 C   0  0  0  0  0  0  0  0  0  0  0  0
   -3.8635   28.7308   -5.3667 C   0  0  0  0  0  0  0  0  0  0  0  0
  -10.8103   32.3348    0.5965 C   0  0  0  0  0  0  0  0  0  0  0  0
  4  2  1  0
  5  1  2  0
  6  4  1  0
  6  5  1  0
 11 10  1  0
 14 12  1  0
 15  3  1  0
 11 15  1  6
 17  8  1  0
 18  7  2  0
 18 10  1  0
 18 13  1  0
 19  8  1  0
 20 19  1  0
 21  5  1  0
 22  1  2  0
 22  2  1  0
 22 11  1  0
  4 23  1  6
 23 16  1  0
 24  4  1  0
  6 24  1  6
 25  3  1  0
 25  7  1  0
 26 12  2  3
  3 27  1  1
 27  9  2  0
 27 17  1  0
 28 12  1  0
 28 16  1  0
M  END
>  <ID>  (1) 
conformer_0

$$$$
