
     RDKit          3D

 26 26  0  0  0  0  0  0  0  0999 V2000
  -10.6498   30.8645   -3.7931 C   0  0  0  0  0  0  0  0  0  0  0  0
   -7.0659   29.9295   -3.8145 C   0  0  0  0  0  0  0  0  0  0  0  0
   -8.9218   31.3062   -2.3878 C   0  0  0  0  0  0  0  0  0  0  0  0
   -2.7641   30.0343   -2.5249 C   0  0  0  0  0  0  0  0  0  0  0  0
  -10.1031   32.1389   -1.1129 C   0  0  0  0  0  0  0  0  0  0  0  0
  -11.1900   33.4627    1.5386 C   0  0  0  0  0  0  0  0  0  0  0  0
   -5.6083   27.4081   -7.5093 C   0  0  0  0  0  0  0  0  0  0  0  0
   -5.1366   31.4871   -2.0108 N   0  0  0  0  0  0  0  0  0  0  0  0
   -3.9097   31.2832   -1.3886 C   0  0  0  0  0  0  0  0  0  0  0  0
   -4.5330   27.9893   -7.5452 O   0  0  0  0  0  0  0  0  0  0  0  0
   -9.1500   29.5849   -4.7108 C   0  0  0  0  0  0  0  0  0  0  0  0
  -10.5064   32.5203    0.2908 C   0  0  0  0  0  0  0  0  0  0  0  0
  -12.8126   32.9296    0.1317 O   0  0  0  0  0  0  0  0  0  0  0  0
  -11.5836   33.0382    0.2982 C   0  0  0  0  0  0  0  0  0  0  0  0
   -2.6901   28.5506   -5.6739 C   0  0  0  0  0  0  0  0  0  0  0  0
   -5.2187   30.6779   -2.8283 C   0  0  0  0  0  0  0  0  0  0  0  0
   -3.7665   28.2647   -4.9946 O   0  0  0  0  0  0  0  0  0  0  0  0
   -4.2137   29.9780   -3.7240 C   0  0  0  0  0  0  0  0  0  0  0  0
  -10.2764   31.6453   -2.3058 C   0  0  0  0  0  0  0  0  0  0  0  0
   -4.0087   32.1455   -0.0985 N   0  0  0  0  0  0  0  0  0  0  0  0
   -2.8949   30.6608   -1.7679 N   0  0  0  0  0  0  0  0  0  0  0  0
   -9.6159   30.0919   -3.9856 C   0  0  0  0  0  0  0  0  0  0  0  0
   -7.7720   30.8488   -3.0761 C   0  0  0  0  0  0  0  0  0  0  0  0
   -4.7806   28.0594   -5.5255 C   0  0  0  0  0  0  0  0  0  0  0  0
   -6.8241   29.6041   -4.5367 C   0  0  0  0  0  0  0  0  0  0  0  0
   -3.9895   29.6151   -3.7709 C   0  0  0  0  0  0  0  0  0  0  0  0
  9  8  2  0
 10  7  1  0
 12  5  1  0
 14  6  2  3
 14 12  1  0
 14 13  1  0
 16  8  1  0
 17 15  1  0
 18 16  1  0
 19  1  1  0
 19  3  2  3
 19  5  1  0
 20  9  1  0
 21  4  2  0
 21  9  1  0
 22  1  1  0
 22 11  2  3
 23  2  1  0
 23  3  1  0
 24 10  1  0
 24 17  1  0
 25  2  1  0
 25 24  1  0
 26  4  1  0
 26 18  1  0
 26 24  1  0
M  END
>  <ID>  (1) 
conformer_0

$$$$
