
     RDKit          3D

 21 22  0  0  0  0  0  0  0  0999 V2000
   -8.3973   31.1803   -2.7689 C   0  0  0  0  0  0  0  0  0  0  0  0
   -4.0908   31.2132   -1.4853 C   0  0  1  0  0  0  0  0  0  0  0  0
   -7.1875   30.5200   -3.6370 C   0  0  0  0  0  0  0  0  0  0  0  0
   -9.7531   29.9789   -4.0276 C   0  0  0  0  0  0  0  0  0  0  0  0
   -3.6794   29.0675   -5.4469 C   0  0  0  0  0  0  0  0  0  0  0  0
  -10.5396   30.8845   -3.4417 C   0  0  0  0  0  0  0  0  0  0  0  0
   -5.6587   27.1375   -7.9408 C   0  0  0  0  0  0  0  0  0  0  0  0
   -5.1352   30.3871   -3.1737 C   0  0  0  0  0  0  0  0  0  0  0  0
   -4.7208   27.8673   -7.4393 O   0  0  0  0  0  0  0  0  0  0  0  0
   -9.8556   31.7078   -2.0884 C   0  0  0  0  0  0  0  0  0  0  0  0
   -8.0384   29.9822   -4.0489 C   0  0  0  0  0  0  0  0  0  0  0  0
   -3.2430   29.8567   -3.2428 N   0  0  0  0  0  0  0  0  0  0  0  0
  -10.3439   32.2920   -1.2077 C   0  0  0  0  0  0  0  0  0  0  0  0
   -3.9712   31.9542   -0.0003 N   0  0  0  0  0  0  0  0  0  0  0  0
  -11.5699   33.0291    0.8718 C   0  0  0  0  0  0  0  0  0  0  0  0
  -12.9933   32.9092    0.6594 O   0  0  0  0  0  0  0  0  0  0  0  0
  -10.7910   32.4992    1.0777 C   0  0  0  0  0  0  0  0  0  0  0  0
   -5.0870   31.4842   -1.7416 N   0  0  0  0  0  0  0  0  0  0  0  0
   -3.2868   30.1046   -2.6983 C   0  0  2  0  0  0  0  0  0  0  0  0
   -2.9084   30.6340   -1.2207 N   0  0  0  0  0  0  0  0  0  0  0  0
   -4.8472   28.0013   -5.9893 C   0  0  0  0  0  0  0  0  0  0  0  0
  3  1  2  0
  6  4  1  0
  8  3  1  0
  9  7  1  0
 10  1  2  0
 10  6  1  0
 11  3  1  0
 11  4  2  0
 13 10  1  0
  2 14  1  1
 16 15  1  0
 17 13  1  0
 17 15  1  0
 18  2  1  0
 18  8  2  3
 19  2  1  0
 19  5  1  0
 19 12  1  6
 20  2  1  0
 20 19  1  0
 21  5  1  0
 21  9  1  0
M  END
>  <ID>  (1) 
conformer_0

$$$$
