
     RDKit          3D

 28 28  0  0  0  0  0  0  0  0999 V2000
  -10.0144   29.6605   -4.3538 C   0  0  0  0  0  0  0  0  0  0  0  0
   -7.1010   29.7300   -3.7078 C   0  0  0  0  0  0  0  0  0  0  0  0
   -7.6672   30.7855   -2.8492 C   0  0  0  0  0  0  0  0  0  0  0  0
   -3.8482   31.4039   -1.3371 C   0  0  0  0  0  0  0  0  0  0  0  0
   -2.9990   28.8160   -5.8531 C   0  0  0  0  0  0  0  0  0  0  0  0
  -10.0234   31.7572   -1.9911 C   0  0  0  0  0  0  0  0  0  0  0  0
   -9.4334   29.6520   -5.0140 C   0  0  0  0  0  0  0  0  0  0  0  0
  -11.2176   33.0685    1.8672 C   0  0  0  0  0  0  0  0  0  0  0  0
   -3.0654   30.7046   -1.3596 N   0  0  0  0  0  0  0  0  0  0  0  0
   -5.4056   27.7055   -7.6876 C   0  0  0  0  0  0  0  0  0  0  0  0
  -11.6137   33.0752    0.7104 C   0  0  0  0  0  0  0  0  0  0  0  0
  -12.9226   33.0137    0.4995 O   0  0  0  0  0  0  0  0  0  0  0  0
   -2.8883   30.0713   -2.5281 C   0  0  0  0  0  0  0  0  0  0  0  0
   -3.5272   28.2490   -4.8525 O   0  0  0  0  0  0  0  0  0  0  0  0
   -5.1391   31.4839   -1.7953 N   0  0  0  0  0  0  0  0  0  0  0  0
  -10.2764   32.1711   -0.7815 C   0  0  0  0  0  0  0  0  0  0  0  0
   -4.1984   27.6435   -7.4330 O   0  0  0  0  0  0  0  0  0  0  0  0
   -8.3238   29.8393   -5.1824 N   0  0  0  0  0  0  0  0  0  0  0  0
   -5.4178   30.7190   -2.6678 C   0  0  0  0  0  0  0  0  0  0  0  0
   -3.8260   32.0187   -0.2860 N   0  0  0  0  0  0  0  0  0  0  0  0
   -5.1012   30.3481   -3.5559 C   0  0  1  0  0  0  0  0  0  0  0  0
   -9.2335   30.9423   -2.7292 C   0  0  1  0  0  0  0  0  0  0  0  0
   -7.7082   30.2236   -4.1619 C   0  0  2  0  0  0  0  0  0  0  0  0
  -10.6847   30.9882   -3.7165 C   0  0  0  0  0  0  0  0  0  0  0  0
   -3.0658   29.4948   -2.9854 N   0  0  0  0  0  0  0  0  0  0  0  0
  -10.8791   34.5519    0.6730 C   0  0  0  0  0  0  0  0  0  0  0  0
   -4.2712   29.7149   -3.7952 C   0  0  0  0  0  0  0  0  0  0  0  0
   -4.7028   28.1071   -5.8668 C   0  0  0  0  0  0  0  0  0  0  0  0
  7  1  1  0
  9  4  1  0
 11  8  1  0
 12 11  1  0
 13  5  1  0
 13  9  1  0
 14  5  1  0
 15  4  1  0
 16  6  1  0
 16 11  1  0
 17 10  1  0
 18  7  1  0
 19 15  1  0
 20  4  2  3
 21  2  1  1
 21 19  1  0
 22  3  1  0
 22  6  1  6
 23  2  1  1
 23  3  1  0
 23 18  1  0
 24  1  1  0
 24 22  1  0
 26 11  1  0
 27 21  1  0
 27 25  1  0
 28 14  1  0
 28 17  1  0
M  END
>  <ID>  (1) 
conformer_0

$$$$
