
     RDKit          3D

 22 21  0  0  0  0  0  0  0  0999 V2000
   -4.6731   30.9638   -2.0285 C   0  0  2  0  0  0  0  0  0  0  0  0
   -9.8904   29.9534   -4.0580 C   0  0  0  0  0  0  0  0  0  0  0  0
  -10.0099   31.8737   -1.7053 C   0  0  0  0  0  0  0  0  0  0  0  0
  -10.2587   30.8103   -3.4090 C   0  0  0  0  0  0  0  0  0  0  0  0
   -3.5115   28.7127   -5.7564 C   0  0  0  0  0  0  0  0  0  0  0  0
   -8.9914   31.2962   -2.3405 C   0  0  1  0  0  0  0  0  0  0  0  0
  -10.3890   32.4305   -0.5024 C   0  0  0  0  0  0  0  0  0  0  0  0
   -7.9246   29.7164   -4.1063 C   0  0  2  0  0  0  0  0  0  0  0  0
   -2.6319   30.1740   -2.0190 N   0  0  0  0  0  0  0  0  0  0  0  0
   -4.9855   28.1055   -6.0489 C   0  0  1  0  0  0  0  0  0  0  0  0
   -4.3068   29.8480   -3.6752 C   0  0  0  0  0  0  0  0  0  0  0  0
  -12.7803   33.2748    0.4347 O   0  0  0  0  0  0  0  0  0  0  0  0
   -4.1916   27.9364   -7.8787 O   0  0  0  0  0  0  0  0  0  0  0  0
  -11.1537   33.1141    1.5743 C   0  0  0  0  0  0  0  0  0  0  0  0
   -5.1989   30.2952   -3.3748 C   0  0  0  0  0  0  0  0  0  0  0  0
  -11.6357   33.4562    0.9942 C   0  0  1  0  0  0  0  0  0  0  0  0
   -7.5352   29.3844   -4.6737 N   0  0  0  0  0  0  0  0  0  0  0  0
   -4.0111   31.7684   -0.1260 N   0  0  0  0  0  0  0  0  0  0  0  0
   -2.9586   30.1324   -2.3244 C   0  0  0  0  0  0  0  0  0  0  0  0
   -7.7322   30.8020   -2.8912 C   0  0  0  0  0  0  0  0  0  0  0  0
   -4.5068   31.1314   -1.5975 N   0  0  0  0  0  0  0  0  0  0  0  0
   -5.4311   27.4759   -8.1137 C   0  0  0  0  0  0  0  0  0  0  0  0
  4  2  1  0
  6  3  1  6
  6  4  1  0
  7  3  1  0
 10  5  1  1
 10  8  1  0
 13 10  1  0
 15  1  1  0
 15 11  2  3
 16  7  1  0
 16 12  1  0
 16 14  1  1
  8 17  1  6
 19  1  1  0
 19  5  1  0
 19  9  2  3
 20  6  1  0
 20  8  1  0
  1 21  1  1
 21 18  1  0
 22 13  1  0
M  END
>  <ID>  (1) 
conformer_0

$$$$
