
     RDKit          3D

 23 25  0  0  0  0  0  0  0  0999 V2000
   -9.7993   29.9053   -3.8160 C   0  0  0  0  0  0  0  0  0  0  0  0
   -8.1838   30.8281   -2.8505 C   0  0  1  0  0  0  0  0  0  0  0  0
  -10.5423   30.8826   -3.2176 C   0  0  0  0  0  0  0  0  0  0  0  0
   -4.2196   29.8093   -3.8381 C   0  0  0  0  0  0  0  0  0  0  0  0
   -3.6922   28.7201   -5.5006 C   0  0  1  0  0  0  0  0  0  0  0  0
   -6.8854   30.2756   -3.3787 C   0  0  1  0  0  0  0  0  0  0  0  0
   -2.7927   30.6199   -1.8016 N   0  0  0  0  0  0  0  0  0  0  0  0
   -8.0339   29.6748   -4.1330 C   0  0  1  0  0  0  0  0  0  0  0  0
   -4.6602   27.5250   -8.0185 O   0  0  0  0  0  0  0  0  0  0  0  0
   -9.5195   31.3074   -2.1242 C   0  0  2  0  0  0  0  0  0  0  0  0
   -5.2405   27.6529   -8.3212 C   0  0  0  0  0  0  0  0  0  0  0  0
   -3.1397   28.2508   -5.0214 O   0  0  0  0  0  0  0  0  0  0  0  0
  -12.7650   33.2356    0.5210 O   0  0  0  0  0  0  0  0  0  0  0  0
  -10.3701   31.8805   -1.5372 C   0  0  0  0  0  0  0  0  0  0  0  0
  -11.5476   33.3508    0.8353 C   0  0  0  0  0  0  0  0  0  0  0  0
   -5.1274   30.9843   -2.2511 C   0  0  0  0  0  0  0  0  0  0  0  0
   -5.2686   30.1889   -3.4825 C   0  0  0  0  0  0  0  0  0  0  0  0
   -7.4920   29.1069   -4.8424 N   0  0  0  0  0  0  0  0  0  0  0  0
  -11.2300   33.5139    1.7999 C   0  0  0  0  0  0  0  0  0  0  0  0
   -4.5267   31.3221   -1.7410 N   0  0  0  0  0  0  0  0  0  0  0  0
   -3.0949   30.3731   -2.4680 C   0  0  0  0  0  0  0  0  0  0  0  0
   -4.8692   28.0746   -6.3466 C   0  0  0  0  0  0  0  0  0  0  0  0
  -10.6063   32.5716   -0.3752 C   0  0  0  0  0  0  0  0  0  0  0  0
  3  1  1  0
  5  4  1  0
  6  2  1  0
  8  1  1  0
  8  2  1  0
  8  6  1  0
  2 10  1  1
 10  3  1  0
 11  9  1  0
  5 12  1  1
 10 14  1  6
 15 13  1  0
 17  4  2  0
  6 17  1  6
 17 16  1  0
  8 18  1  6
 19 15  1  0
 20 16  2  0
 21  4  1  0
 21  7  2  3
 21 20  1  0
 22  5  1  0
 22  9  1  0
 23 14  2  0
 23 15  2  0
M  END
>  <ID>  (1) 
conformer_0

$$$$
