
     RDKit          3D

 27 31  0  0  0  0  0  0  0  0999 V2000
  -10.0043   29.6415   -4.4066 C   0  0  0  0  0  0  0  0  0  0  0  0
   -6.9377   30.3171   -3.2260 C   0  0  0  0  0  0  0  0  0  0  0  0
   -8.3570   30.0209   -3.4001 C   0  0  0  0  0  0  0  0  0  0  0  0
   -3.9181   29.8450   -3.7678 C   0  0  0  0  0  0  0  0  0  0  0  0
  -10.2799   30.8608   -3.3088 C   0  0  0  0  0  0  0  0  0  0  0  0
   -8.7098   28.8312   -5.1968 C   0  0  0  0  0  0  0  0  0  0  0  0
   -2.7877   30.7221   -1.9075 N   0  0  0  0  0  0  0  0  0  0  0  0
   -2.9986   28.7122   -5.5565 C   0  0  0  0  0  0  0  0  0  0  0  0
   -5.9859   29.0802   -4.3684 C   0  0  0  0  0  0  0  0  0  0  0  0
   -4.5203   28.1104   -7.4500 O   0  0  0  0  0  0  0  0  0  0  0  0
   -4.1925   31.8175   -0.0121 N   0  0  0  0  0  0  0  0  0  0  0  0
   -3.8616   31.3202   -1.3375 C   0  0  0  0  0  0  0  0  0  0  0  0
  -11.8889   33.1670    0.2774 C   0  0  0  0  0  0  0  0  0  0  0  0
  -12.8699   32.9580   -0.2620 O   0  0  0  0  0  0  0  0  0  0  0  0
   -7.7829   29.2662   -5.3980 N   0  0  0  0  0  0  0  0  0  0  0  0
   -8.9861   31.1198   -2.2805 C   0  0  0  0  0  0  0  0  0  0  0  0
   -5.5880   27.4362   -7.8274 C   0  0  0  0  0  0  0  0  0  0  0  0
   -4.8851   31.4364   -1.8159 N   0  0  0  0  0  0  0  0  0  0  0  0
   -3.7063   28.5597   -5.1648 O   0  0  0  0  0  0  0  0  0  0  0  0
  -10.1881   31.8004   -1.6732 C   0  0  0  0  0  0  0  0  0  0  0  0
   -4.8116   30.2442   -3.5291 C   0  0  0  0  0  0  0  0  0  0  0  0
   -5.2613   30.6813   -2.7133 C   0  0  0  0  0  0  0  0  0  0  0  0
  -10.5049   32.2142   -0.7615 C   0  0  0  0  0  0  0  0  0  0  0  0
   -7.7467   29.9079   -4.2079 C   0  0  0  0  0  0  0  0  0  0  0  0
   -5.1813   28.5140   -5.4054 C   0  0  0  0  0  0  0  0  0  0  0  0
   -2.6650   30.1199   -2.6026 C   0  0  0  0  0  0  0  0  0  0  0  0
  -11.1965   33.7176    0.6758 C   0  0  0  0  0  0  0  0  0  0  0  0
  3  1  1  0
  5  1  1  0
  6  1  1  0
  9  2  1  0
 12  7  2  0
 12 11  1  0
 14 13  2  0
 15  6  1  0
 16  3  1  0
 16  5  1  0
 17 10  1  0
 18 12  1  0
 19  8  1  0
 20  5  1  0
 20 16  1  0
 21  4  1  0
 21  9  1  0
 22  2  1  0
 22 18  1  0
 22 21  1  0
 23 13  1  0
 23 20  1  0
 24  2  1  0
 24  3  1  0
 24 15  1  0
 25  9  1  0
 25 10  1  0
 25 19  1  0
 26  4  2  0
 26  7  1  0
 27 13  1  0
M  END
>  <ID>  (1) 
conformer_0

$$$$
