
     RDKit          3D

 23 24  0  0  0  0  0  0  0  0999 V2000
   -7.6372   30.5221   -3.2149 C   0  0  0  0  0  0  0  0  0  0  0  0
  -10.4979   30.6863   -3.6679 C   0  0  0  0  0  0  0  0  0  0  0  0
   -4.8756   30.3962   -3.0501 C   0  0  0  0  0  0  0  0  0  0  0  0
   -6.7273   29.8521   -3.7315 C   0  0  0  0  0  0  0  0  0  0  0  0
   -3.6670   28.8331   -5.4645 C   0  0  0  0  0  0  0  0  0  0  0  0
   -8.9991   31.1583   -2.6153 C   0  0  0  0  0  0  0  0  0  0  0  0
  -10.0944   31.6166   -2.1758 C   0  0  2  0  0  0  0  0  0  0  0  0
   -5.3184   28.3423   -5.6077 C   0  0  2  0  0  0  0  0  0  0  0  0
   -2.8141   30.5914   -1.3716 N   0  0  0  0  0  0  0  0  0  0  0  0
  -10.6353   33.9900    0.9780 C   0  0  0  0  0  0  0  0  0  0  0  0
  -11.0575   33.1014    0.0923 C   0  0  0  0  0  0  0  0  0  0  0  0
   -4.7656   27.9443   -7.3564 O   0  0  0  0  0  0  0  0  0  0  0  0
   -7.9137   29.4701   -4.5586 C   0  0  0  0  0  0  0  0  0  0  0  0
  -12.5541   32.9629    0.3668 O   0  0  0  0  0  0  0  0  0  0  0  0
   -4.1332   31.2199   -1.3687 C   0  0  0  0  0  0  0  0  0  0  0  0
   -4.1058   31.9555    0.0500 N   0  0  0  0  0  0  0  0  0  0  0  0
   -2.9589   30.0218   -2.6325 C   0  0  0  0  0  0  0  0  0  0  0  0
   -9.4553   29.7280   -4.0153 C   0  0  0  0  0  0  0  0  0  0  0  0
   -7.2394   29.1712   -5.2943 N   0  0  0  0  0  0  0  0  0  0  0  0
   -5.7475   27.2651   -7.6386 C   0  0  0  0  0  0  0  0  0  0  0  0
   -4.7805   31.3803   -1.9360 N   0  0  0  0  0  0  0  0  0  0  0  0
  -10.2249   32.3066   -0.7974 C   0  0  0  0  0  0  0  0  0  0  0  0
   -4.6118   30.1113   -3.2517 C   0  0  0  0  0  0  0  0  0  0  0  0
  4  1  1  0
  6  1  3  0
  7  2  1  0
  7  6  1  0
  8  5  1  6
 11 10  2  3
 12  8  1  0
 13  4  1  0
 14 11  1  0
 15  9  2  0
 16 15  1  0
 17  5  1  0
 17  9  1  0
 18  2  1  0
 18 13  1  0
 19  8  1  0
 19 13  1  0
 20 12  1  0
 21  3  1  0
 21 15  1  0
  7 22  1  1
 22 11  1  0
 23  3  2  0
 23 17  1  0
M  END
>  <ID>  (1) 
conformer_0

$$$$
