
     RDKit          3D

 27 29  0  0  0  0  0  0  0  0999 V2000
   -2.9384   30.1050   -2.5222 C   0  0  0  0  0  0  0  0  0  0  0  0
   -9.2318   29.9925   -3.7625 C   0  0  0  0  0  0  0  0  0  0  0  0
  -10.7794   31.3419   -3.0385 C   0  0  0  0  0  0  0  0  0  0  0  0
   -3.5577   28.9754   -5.5587 C   0  0  0  0  0  0  0  0  0  0  0  0
  -10.8475   32.5868   -0.0573 C   0  0  0  0  0  0  0  0  0  0  0  0
   -9.6686   31.1910   -1.9589 C   0  0  0  0  0  0  0  0  0  0  0  0
   -6.8690   29.6812   -4.1042 C   0  0  0  0  0  0  0  0  0  0  0  0
   -4.0510   31.3543   -1.2000 C   0  0  0  0  0  0  0  0  0  0  0  0
  -10.9794   34.2946    1.1131 C   0  0  0  0  0  0  0  0  0  0  0  0
   -2.4924   30.4369   -1.7844 N   0  0  0  0  0  0  0  0  0  0  0  0
   -4.9637   28.1008   -5.8573 C   0  0  0  0  0  0  0  0  0  0  0  0
   -3.5001   28.8774   -4.2713 O   0  0  0  0  0  0  0  0  0  0  0  0
   -4.5350   28.0117   -7.5387 O   0  0  0  0  0  0  0  0  0  0  0  0
  -12.9006   32.9345    0.2131 O   0  0  0  0  0  0  0  0  0  0  0  0
   -5.3982   30.6531   -2.6079 C   0  0  0  0  0  0  0  0  0  0  0  0
  -11.7400   33.2650    0.5032 C   0  0  0  0  0  0  0  0  0  0  0  0
  -10.3280   32.1715   -1.3286 C   0  0  0  0  0  0  0  0  0  0  0  0
  -10.5243   30.5106   -4.3319 C   0  0  0  0  0  0  0  0  0  0  0  0
   -3.9085   32.2232   -0.2889 N   0  0  0  0  0  0  0  0  0  0  0  0
   -7.5906   29.4491   -4.7224 N   0  0  0  0  0  0  0  0  0  0  0  0
   -5.5511   27.5204   -7.8484 C   0  0  0  0  0  0  0  0  0  0  0  0
   -5.4759   30.8773   -2.6603 C   0  0  0  0  0  0  0  0  0  0  0  0
   -4.2480   29.8704   -3.4719 C   0  0  0  0  0  0  0  0  0  0  0  0
   -8.3369   31.1930   -2.6722 C   0  0  0  0  0  0  0  0  0  0  0  0
   -8.9039   29.8216   -4.3507 C   0  0  0  0  0  0  0  0  0  0  0  0
   -7.0569   30.1920   -3.4470 C   0  0  0  0  0  0  0  0  0  0  0  0
   -4.3357   30.9914   -1.6279 N   0  0  0  0  0  0  0  0  0  0  0  0
  6  3  1  0
 10  1  1  0
 10  8  2  0
 11  4  1  0
 12  4  1  0
 13 11  1  0
 16  5  1  0
 16  9  1  0
 16 14  1  0
 17  5  1  0
 17  6  1  0
 18  2  1  0
 18  3  1  0
 19  8  1  0
 20  7  2  0
 21 13  1  0
 22 15  1  0
 23  1  2  0
 23 12  1  0
 23 15  1  0
 24  2  1  0
 24  6  1  0
 25  2  1  0
 25 20  1  0
 26  7  1  0
 26 22  1  0
 26 24  1  0
 27  8  1  0
 27 15  1  0
M  END
>  <ID>  (1) 
conformer_0

$$$$
