
     RDKit          3D

 28 32  0  0  0  0  0  0  0  0999 V2000
  -10.0336   32.0052   -1.0111 C   0  0  0  0  0  0  0  0  0  0  0  0
   -9.4415   29.8656   -4.1397 C   0  0  0  0  0  0  0  0  0  0  0  0
  -10.3755   31.5713   -2.7046 C   0  0  0  0  0  0  0  0  0  0  0  0
   -3.8539   31.3222   -1.2166 C   0  0  0  0  0  0  0  0  0  0  0  0
  -10.6929   32.7900   -0.2799 C   0  0  0  0  0  0  0  0  0  0  0  0
   -4.2503   28.0093   -5.1553 C   0  0  0  0  0  0  0  0  0  0  0  0
  -11.0707   32.6790    1.5311 C   0  0  0  0  0  0  0  0  0  0  0  0
   -5.3192   27.3808   -9.3570 C   0  0  0  0  0  0  0  0  0  0  0  0
   -3.1412   31.0317   -1.0887 N   0  0  0  0  0  0  0  0  0  0  0  0
   -8.8514   29.7995   -4.5500 C   0  0  0  0  0  0  0  0  0  0  0  0
   -4.6562   27.8385   -7.7260 O   0  0  0  0  0  0  0  0  0  0  0  0
  -12.9362   33.1989    0.4437 O   0  0  0  0  0  0  0  0  0  0  0  0
   -9.1743   31.3221   -2.1245 C   0  0  0  0  0  0  0  0  0  0  0  0
   -4.2204   29.8241   -3.7194 C   0  0  0  0  0  0  0  0  0  0  0  0
  -11.6121   33.4549    0.7719 C   0  0  0  0  0  0  0  0  0  0  0  0
   -8.0879   30.6199   -2.9664 C   0  0  0  0  0  0  0  0  0  0  0  0
   -7.8095   29.1453   -5.2547 N   0  0  0  0  0  0  0  0  0  0  0  0
   -5.2256   31.5401   -1.7763 N   0  0  0  0  0  0  0  0  0  0  0  0
   -3.8637   31.7235    0.0818 N   0  0  0  0  0  0  0  0  0  0  0  0
   -2.7099   30.1989   -2.5528 C   0  0  0  0  0  3  0  0  0  0  0  0
  -10.6452   30.5892   -4.0318 C   0  0  0  0  0  0  0  0  0  0  0  0
   -4.9782   30.1823   -3.3014 C   0  0  0  0  0  0  0  0  0  0  0  0
   -2.9602   30.3290   -3.1737 N   0  0  0  0  0  0  0  0  0  0  0  0
   -7.0624   30.4106   -3.4331 C   0  0  0  0  0  0  0  0  0  0  0  0
   -5.3010   30.7368   -2.6945 C   0  0  0  0  0  0  0  0  0  0  0  0
   -5.0896   27.6391   -7.0589 C   0  0  0  0  0  0  0  0  0  0  0  0
   -6.7465   29.1926   -4.5587 C   0  0  0  0  0  0  0  0  0  0  0  0
   -6.0525   29.3463   -4.5588 C   0  0  0  0  0  0  0  0  0  0  0  0
  3  1  1  0
  5  1  1  0
  9  4  2  0
 10  2  1  0
 11  8  1  0
 13  1  1  0
 13  3  1  0
 15  5  1  0
 15  7  1  0
 15 12  1  0
 16 10  1  0
 16 13  1  0
 17 10  1  0
 18  4  1  0
 19  4  1  0
 20  6  1  0
 20  9  1  0
 21  2  1  0
 21  3  1  0
 22 14  1  0
 23 14  1  0
 23 20  1  0
 24 16  1  0
 25 18  1  0
 25 22  2  0
 25 24  1  0
 26  6  1  0
 26 11  1  0
 27 17  1  0
 27 24  1  0
 28 22  1  0
 28 27  1  0
M  RAD  1  20   2
M  END
>  <ID>  (1) 
conformer_0

$$$$
