
     RDKit          3D

 25 27  0  0  0  0  0  0  0  0999 V2000
   -9.9246   30.0777   -4.2173 C   0  0  0  0  0  0  0  0  0  0  0  0
   -7.0975   30.4165   -3.3212 C   0  0  2  0  0  0  0  0  0  0  0  0
   -6.3398   29.4529   -4.3656 C   0  0  0  0  0  0  0  0  0  0  0  0
   -4.1783   30.0737   -3.5246 C   0  0  0  0  0  0  0  0  0  0  0  0
   -3.4683   28.7461   -5.4762 C   0  0  0  0  0  0  0  0  0  0  0  0
   -8.2703   30.6739   -2.9552 C   0  0  0  0  0  0  0  0  0  0  0  0
   -7.9019   29.9631   -3.8944 C   0  0  1  0  0  0  0  0  0  0  0  0
   -2.8732   30.6332   -1.6415 N   0  0  0  0  0  0  0  0  0  0  0  0
   -5.4174   30.5664   -2.8342 C   0  0  1  0  0  0  0  0  0  0  0  0
  -10.5041   31.0641   -3.3357 C   0  0  0  0  0  0  0  0  0  0  0  0
   -4.7444   27.8218   -6.8931 O   0  0  0  0  0  0  0  0  0  0  0  0
   -3.9637   32.0422    0.0202 N   0  0  0  0  0  0  0  0  0  0  0  0
  -11.2529   33.0492    1.5511 C   0  0  0  0  0  0  0  0  0  0  0  0
   -5.1645   31.4397   -1.9161 N   0  0  0  0  0  0  0  0  0  0  0  0
  -11.5025   33.0244    0.3245 C   0  0  0  0  0  0  0  0  0  0  0  0
   -5.2547   28.0996   -5.5276 C   0  0  2  0  0  0  0  0  0  0  0  0
   -8.3538   29.2724   -5.3070 N   0  0  0  0  0  0  0  0  0  0  0  0
  -12.7312   33.0769    0.2067 O   0  0  0  0  0  0  0  0  0  0  0  0
   -3.9616   31.3952   -1.2525 C   0  0  0  0  0  0  0  0  0  0  0  0
   -9.4430   31.3827   -2.0643 C   0  0  2  0  0  0  0  0  0  0  0  0
  -10.3998   32.0227   -1.7216 C   0  0  0  0  0  0  0  0  0  0  0  0
   -5.6089   27.4067   -7.6035 C   0  0  0  0  0  0  0  0  0  0  0  0
   -2.7837   30.2012   -2.4270 C   0  0  0  0  0  0  0  0  0  0  0  0
   -9.2241   29.6078   -5.1084 C   0  0  0  0  0  0  0  0  0  0  0  0
  -10.7487   32.5898   -0.3951 C   0  0  0  0  0  0  0  0  0  0  0  0
  2  3  1  1
  6  2  1  0
  7  2  1  0
  7  6  1  0
  9  2  1  0
  9  4  1  0
 10  1  1  0
  9 14  1  6
 15 13  1  0
 16  3  1  0
 16  5  1  1
 16 11  1  0
  7 17  1  6
 18 15  1  0
 19  8  2  0
 19 12  1  0
 19 14  1  0
 20  6  1  0
 20 10  1  0
 20 21  1  6
 22 11  1  0
 23  4  2  0
 23  8  1  0
 24  1  1  0
 24 17  1  0
 25 15  2  3
 25 21  1  0
M  END
>  <ID>  (1) 
conformer_0

$$$$
