
     RDKit          3D

 21 21  0  0  0  0  0  0  0  0999 V2000
   -6.8506   30.2427   -3.5128 C   0  0  0  0  0  0  0  0  0  0  0  0
   -9.8143   29.7745   -3.9949 C   0  0  0  0  0  0  0  0  0  0  0  0
   -7.9866   30.5394   -3.1826 C   0  0  0  0  0  0  0  0  0  0  0  0
   -4.1184   31.1460   -1.7113 C   0  0  0  0  0  0  0  0  0  0  0  0
  -10.6341   30.7003   -3.4879 C   0  0  0  0  0  0  0  0  0  0  0  0
   -9.0950   31.1114   -2.4572 C   0  0  0  0  0  0  0  0  0  0  0  0
   -3.6894   28.4927   -5.6646 C   0  0  0  0  0  0  0  0  0  0  0  0
   -7.9935   29.5381   -4.5384 C   0  0  0  0  0  0  0  0  0  0  0  0
   -4.6077   30.2684   -3.3127 C   0  0  0  0  0  0  0  0  0  0  0  0
   -4.4579   27.8760   -7.5041 O   0  0  0  0  0  0  0  0  0  0  0  0
   -5.2808   27.6377   -7.7749 C   0  0  0  0  0  0  0  0  0  0  0  0
  -12.9327   33.0193    0.3551 O   0  0  0  0  0  0  0  0  0  0  0  0
  -10.2673   31.5414   -1.8888 C   0  0  0  0  0  0  0  0  0  0  0  0
   -7.6273   29.1988   -5.4052 N   0  0  0  0  0  0  0  0  0  0  0  0
  -11.5411   33.1106    0.5107 C   0  0  2  0  0  0  0  0  0  0  0  0
   -2.6660   29.8715   -2.4817 N   0  0  0  0  0  0  0  0  0  0  0  0
  -10.3898   32.1027   -0.7881 C   0  0  0  0  0  0  0  0  0  0  0  0
   -2.9697   29.8465   -2.9010 C   0  0  0  0  0  0  0  0  0  0  0  0
   -3.4894   27.9627   -5.4034 O   0  0  0  0  0  0  0  0  0  0  0  0
   -4.7221   31.1834   -1.9234 N   0  0  0  0  0  0  0  0  0  0  0  0
  -11.0424   32.8634    1.1311 C   0  0  0  0  0  0  0  0  0  0  0  0
  3  1  1  0
  5  2  1  0
  6  3  2  0
  8  2  1  0
  8  3  1  0
  9  1  1  0
 10  7  1  0
 11 10  1  0
 13  5  1  0
 13  6  2  0
 14  8  2  3
 15 12  1  0
 17 13  1  0
 17 15  1  0
 18  7  1  0
 18  9  1  0
 18 16  2  3
 19  7  2  0
 20  4  1  0
 20  9  2  3
 15 21  1  1
M  END
>  <ID>  (1) 
conformer_0

$$$$
