
     RDKit          3D

 24 27  0  0  0  0  0  0  0  0999 V2000
   -9.7641   29.9617   -4.2215 C   0  0  0  0  0  0  0  0  0  0  0  0
   -3.9136   29.8652   -3.5214 C   0  0  0  0  0  0  0  0  0  0  0  0
   -6.8242   30.0611   -3.4694 C   0  0  0  0  0  0  0  0  0  0  0  0
   -7.6688   30.8450   -2.6468 C   0  0  0  0  0  0  0  0  0  0  0  0
   -4.2031   28.7701   -5.3089 C   0  0  0  0  0  0  0  0  0  0  0  0
  -10.7215   30.9826   -3.5997 C   0  0  0  0  0  0  0  0  0  0  0  0
   -6.6286   29.4481   -4.2394 C   0  0  0  0  0  0  0  0  0  0  0  0
   -5.1077   30.3014   -3.0093 C   0  0  0  0  0  0  0  0  0  0  0  0
   -5.1242   27.9797   -6.4194 C   0  0  0  0  0  0  0  0  0  0  0  0
   -3.6118   31.1775   -1.1242 C   0  0  0  0  0  0  0  0  0  0  0  0
   -3.4011   28.7738   -4.8685 O   0  0  0  0  0  0  0  0  0  0  0  0
  -11.6327   33.1952    0.5179 C   0  0  0  0  0  0  0  0  0  0  0  0
  -12.9873   33.1375    0.3062 O   0  0  0  0  0  0  0  0  0  0  0  0
   -4.3409   28.0081   -7.4234 O   0  0  0  0  0  0  0  0  0  0  0  0
   -9.0534   30.8443   -2.9069 C   0  0  0  0  0  0  0  0  0  0  0  0
   -7.4975   29.1549   -4.8751 N   0  0  0  0  0  0  0  0  0  0  0  0
  -10.0287   31.7425   -1.9594 C   0  0  0  0  0  0  0  0  0  0  0  0
   -3.7023   31.1230   -1.5133 N   0  0  0  0  0  0  0  0  0  0  0  0
  -10.5966   32.2433   -1.1785 C   0  0  0  0  0  0  0  0  0  0  0  0
   -5.0473   31.1584   -1.9437 C   0  0  0  0  0  0  0  0  0  0  0  0
   -8.6863   29.5911   -4.5324 C   0  0  0  0  0  0  0  0  0  0  0  0
   -5.2656   27.5597   -8.6120 C   0  0  0  0  0  0  0  0  0  0  0  0
  -11.1178   33.1876    1.0076 C   0  0  0  0  0  0  0  0  0  0  0  0
   -2.7209   30.0882   -2.3862 C   0  0  0  0  0  0  0  0  0  0  0  0
  4  3  1  0
  6  1  1  0
  7  3  2  0
  8  2  1  0
  8  3  1  0
  9  5  1  0
 11  2  1  0
 11  5  1  0
 13 12  1  0
 14  9  1  0
 15  1  1  0
 15  4  1  0
 15  6  1  0
 16  7  1  0
 17  6  1  0
 17 15  1  0
 18 10  1  0
 19 12  2  0
 19 17  2  0
 20  8  2  0
 20 18  1  0
 21  1  1  0
 21 16  1  0
 22 14  1  0
 23 12  1  0
 24  2  2  0
 24 18  1  0
M  END
>  <ID>  (1) 
conformer_0

$$$$
