
     RDKit          3D

 22 23  0  0  0  0  0  0  0  0999 V2000
   -7.8475   30.7372   -2.9501 C   0  0  0  0  0  0  0  0  0  0  0  0
   -9.7497   30.1836   -4.0709 C   0  0  0  0  0  0  0  0  0  0  0  0
   -7.0551   30.1403   -3.6193 C   0  0  0  0  0  0  0  0  0  0  0  0
   -4.9543   30.3377   -3.0991 C   0  0  2  0  0  0  0  0  0  0  0  0
   -5.6007   28.1609   -5.6544 C   0  0  0  0  0  0  0  0  0  0  0  0
  -10.3713   30.9390   -3.3918 C   0  0  0  0  0  0  0  0  0  0  0  0
   -9.2727   31.3848   -2.1727 C   0  0  0  0  0  0  0  0  0  0  0  0
  -11.6602   33.3637    0.7724 C   0  0  0  0  0  0  0  0  0  0  0  0
   -5.5502   27.4027   -7.7980 C   0  0  0  0  0  0  0  0  0  0  0  0
   -2.7860   30.4223   -2.0058 N   0  0  0  0  0  0  0  0  0  0  0  0
   -3.9021   31.1719   -1.4031 C   0  0  0  0  0  0  0  0  0  0  0  0
   -8.1465   29.5972   -4.5126 C   0  0  0  0  0  0  0  0  0  0  0  0
   -4.4537   27.8606   -7.6666 O   0  0  0  0  0  0  0  0  0  0  0  0
  -10.2066   31.8779   -1.5432 C   0  0  0  0  0  0  0  0  0  0  0  0
  -12.5165   34.0076    1.1549 N   0  0  0  0  0  0  0  0  0  0  0  0
   -3.6999   28.9543   -4.7269 O   0  0  0  0  0  0  0  0  0  0  0  0
   -3.2810   29.9681   -2.9646 C   0  0  0  0  0  0  0  0  0  0  0  0
   -7.6747   29.0548   -5.2583 N   0  0  0  0  0  0  0  0  0  0  0  0
   -4.7610   31.1355   -1.6333 N   0  0  0  0  0  0  0  0  0  0  0  0
   -3.9781   32.0818   -0.2106 N   0  0  0  0  0  0  0  0  0  0  0  0
  -10.7616   32.4680    0.0825 C   0  0  0  0  0  0  0  0  0  0  0  0
   -3.9194   28.3902   -5.5290 C   0  0  0  0  0  0  0  0  0  0  0  0
  3  1  2  0
  4  3  1  1
  6  2  1  0
  7  1  2  0
  7  6  1  0
  9  5  1  0
 11 10  1  0
 12  2  1  0
 12  3  1  0
 13  9  1  0
 14  7  1  0
 15  8  3  0
 17  4  1  0
 17 10  2  0
 17 16  1  0
 18 12  2  3
 19  4  1  0
 19 11  2  0
 20 11  1  0
 21  8  1  0
 21 14  1  0
 22  5  1  0
 22 16  1  0
M  END
>  <ID>  (1) 
conformer_0

$$$$
