
     RDKit          3D

 22 22  0  0  0  0  0  0  0  0999 V2000
  -10.3426   30.7669   -3.4675 C   0  0  0  0  0  0  0  0  0  0  0  0
   -7.9491   30.5767   -2.9252 C   0  0  0  0  0  0  0  0  0  0  0  0
   -7.2229   30.2944   -3.4231 C   0  0  0  0  0  0  0  0  0  0  0  0
   -3.2875   30.0600   -2.9456 C   0  0  0  0  0  0  0  0  0  0  0  0
   -3.4524   28.6821   -5.4366 C   0  0  1  0  0  0  0  0  0  0  0  0
   -9.3992   31.1654   -2.1112 C   0  0  0  0  0  0  0  0  0  0  0  0
   -8.2774   29.5694   -4.7643 C   0  0  0  0  0  0  0  0  0  0  0  0
   -2.8703   30.3454   -2.0828 N   0  0  0  0  0  0  0  0  0  0  0  0
  -11.2147   33.3189    0.4883 C   0  0  0  0  0  0  0  0  0  0  0  0
  -10.2716   31.7644   -1.7086 C   0  0  0  0  0  0  0  0  0  0  0  0
   -5.2769   30.6693   -2.8223 C   0  0  0  0  0  0  0  0  0  0  0  0
   -4.4691   27.9715   -7.4888 O   0  0  0  0  0  0  0  0  0  0  0  0
  -12.4582   33.1014    0.5375 O   0  0  0  0  0  0  0  0  0  0  0  0
   -7.8996   29.1945   -5.2045 N   0  0  0  0  0  0  0  0  0  0  0  0
   -4.8049   31.5082   -1.5918 N   0  0  0  0  0  0  0  0  0  0  0  0
   -9.8467   30.0376   -4.3440 C   0  0  0  0  0  0  0  0  0  0  0  0
   -3.9396   31.9726    0.0397 N   0  0  0  0  0  0  0  0  0  0  0  0
   -3.8151   31.1928   -1.4226 C   0  0  0  0  0  0  0  0  0  0  0  0
   -5.2648   28.1602   -6.5341 C   0  0  0  0  0  0  0  0  0  0  0  0
   -3.2374   28.1767   -5.1044 O   0  0  0  0  0  0  0  0  0  0  0  0
   -5.3778   28.1563   -5.2118 C   0  0  0  0  0  0  0  0  0  0  0  0
  -10.5527   32.5788   -0.0938 C   0  0  0  0  0  0  0  0  0  0  0  0
  3  2  2  0
  5  4  1  0
  6  1  1  0
  6  2  2  0
  7  3  1  0
  8  4  1  0
 10  6  1  0
 11  3  1  0
 13  9  1  0
 14  7  2  3
 15 11  2  3
 16  1  1  0
 16  7  1  0
 18  8  1  0
 18 15  1  0
 18 17  2  3
 19 12  2  0
  5 20  1  1
 21  5  1  0
 21 19  1  0
 22  9  1  0
 22 10  2  3
M  END
>  <ID>  (1) 
conformer_0

$$$$
