
     RDKit          3D

 20 21  0  0  0  0  0  0  0  0999 V2000
  -10.1583   31.6308   -1.8904 C   0  0  0  0  0  0  0  0  0  0  0  0
  -10.3968   30.8580   -3.4954 C   0  0  0  0  0  0  0  0  0  0  0  0
   -3.7562   30.9122   -1.6374 C   0  0  0  0  0  0  0  0  0  0  0  0
   -7.4465   30.4047   -3.6052 C   0  0  0  0  0  0  0  0  0  0  0  0
   -9.6908   30.0852   -4.2389 C   0  0  0  0  0  0  0  0  0  0  0  0
   -5.9045   27.3881   -7.9765 C   0  0  0  0  0  0  0  0  0  0  0  0
   -7.6158   29.8538   -4.3648 C   0  0  0  0  0  0  0  0  0  0  0  0
  -10.4177   32.2202   -1.0115 C   0  0  0  0  0  0  0  0  0  0  0  0
   -4.5881   28.4595   -5.4529 C   0  0  0  0  0  0  0  0  0  0  0  0
   -3.1229   30.5980   -2.1182 N   0  0  0  0  0  0  0  0  0  0  0  0
   -3.5567   29.7754   -3.3614 C   0  0  0  0  0  0  0  0  0  0  0  0
  -11.6196   33.1726    0.3816 C   0  0  0  0  0  0  0  0  0  0  0  0
   -5.0003   27.7965   -7.4755 O   0  0  0  0  0  0  0  0  0  0  0  0
  -10.8496   33.7142    0.7655 C   0  0  0  0  0  0  0  0  0  0  0  0
   -3.8038   31.6085   -0.1014 N   0  0  0  0  0  0  0  0  0  0  0  0
   -3.8182   28.0839   -5.4014 O   0  0  0  0  0  0  0  0  0  0  0  0
   -5.0676   30.3204   -3.0928 C   0  0  0  0  0  0  0  0  0  0  0  0
   -8.8177   30.9451   -2.5321 C   0  0  0  0  0  0  0  0  0  0  0  0
   -7.3188   29.2773   -5.1910 N   0  0  0  0  0  0  0  0  0  0  0  0
   -5.3260   31.2062   -1.7551 N   0  0  0  0  0  0  0  0  0  0  0  0
  2  1  1  0
  5  2  1  0
  7  4  1  0
  8  1  1  0
  9  7  1  0
 10  3  2  0
 11  9  1  0
 11 10  1  0
 12  8  1  0
 13  6  1  0
 13  9  1  0
 14 12  1  0
 15  3  1  0
 16  9  1  0
 17 11  2  0
 18  1  1  0
 18  2  1  0
 18  4  1  0
 19  7  1  0
 20  3  1  0
 20 17  1  0
M  END
>  <ID>  (1) 
conformer_0

$$$$
