
     RDKit          3D

 27 30  0  0  0  0  0  0  0  0999 V2000
   -9.9202   31.4313   -1.2687 C   0  0  0  0  0  0  0  0  0  0  0  0
  -10.1735   29.9196   -4.0347 C   0  0  0  0  0  0  0  0  0  0  0  0
   -3.9512   31.1693   -1.2932 C   0  0  0  0  0  0  0  0  0  0  0  0
  -10.8840   31.1542   -3.3769 C   0  0  0  0  0  0  0  0  0  0  0  0
   -5.0113   28.0817   -5.4974 C   0  0  0  0  0  0  0  0  0  0  0  0
   -8.8049   29.9017   -4.2078 C   0  0  0  0  0  0  0  0  0  0  0  0
   -2.6980   30.7183   -1.2907 N   0  0  0  0  0  0  0  0  0  0  0  0
  -11.5127   33.5509    2.0543 C   0  0  0  0  0  0  0  0  0  0  0  0
   -9.9484   32.1155   -1.9996 C   0  0  0  0  0  0  0  0  0  0  0  0
   -5.3845   30.5183   -2.7673 C   0  0  0  0  0  0  0  0  0  0  0  0
   -5.1662   27.9863   -7.6074 O   0  0  0  0  0  0  0  0  0  0  0  0
   -3.8356   31.7429   -0.0304 N   0  0  0  0  0  0  0  0  0  0  0  0
   -7.6609   29.3352   -4.8998 N   0  0  0  0  0  0  0  0  0  0  0  0
   -5.3500   28.9689   -4.8999 N   0  0  0  0  0  0  0  0  0  0  0  0
  -12.2685   32.7672   -0.0332 O   0  0  0  0  0  0  0  0  0  0  0  0
  -11.0029   32.9971    0.0037 C   0  0  0  0  0  0  0  0  0  0  0  0
   -9.2316   30.4315   -2.9901 C   0  0  0  0  0  0  0  0  0  0  0  0
   -4.9427   31.3103   -1.9185 N   0  0  0  0  0  0  0  0  0  0  0  0
   -5.7377   27.4134   -7.2344 C   0  0  0  0  0  0  0  0  0  0  0  0
   -2.7765   30.0225   -2.5478 C   0  0  0  0  0  0  0  0  0  0  0  0
   -3.2067   29.9095   -3.2996 N   0  0  0  0  0  0  0  0  0  0  0  0
   -4.0035   28.1728   -5.7862 O   0  0  0  0  0  0  0  0  0  0  0  0
   -8.1158   31.0228   -2.6415 C   0  0  0  0  0  0  0  0  0  0  0  0
   -6.8652   29.5108   -4.3681 C   0  0  0  0  0  0  0  0  0  0  0  0
   -7.0280   30.2672   -3.5061 C   0  0  0  0  0  0  0  0  0  0  0  0
   -4.3928   29.8337   -3.5921 C   0  0  0  0  0  0  0  0  0  0  0  0
  -10.4036   33.3850    0.2011 C   0  0  0  0  0  0  0  0  0  0  0  0
  4  2  1  0
  6  2  1  0
  7  3  2  0
  9  1  1  0
  9  4  1  0
 12  3  1  0
 13  6  1  0
 14  5  1  0
 16  1  1  0
 16 15  1  0
 17  2  1  0
 17  4  1  0
 17  6  1  0
 18  3  1  0
 18 10  1  0
 19  5  1  0
 19 11  1  0
 20  7  1  0
 21 20  1  0
 22  5  1  0
 23 17  1  0
 24 13  1  0
 24 14  1  0
 25 10  1  0
 25 23  1  0
 25 24  2  0
 26 10  2  0
 26 21  1  0
 27  8  1  0
 27 16  1  0
M  END
>  <ID>  (1) 
conformer_0

$$$$
