
     RDKit          3D

 21 23  0  0  0  0  0  0  0  0999 V2000
   -8.9067   30.9553   -2.5184 C   0  0  0  0  0  0  0  0  0  0  0  0
   -5.0489   30.4097   -3.0050 C   0  0  0  0  0  0  0  0  0  0  0  0
   -9.9719   31.7635   -1.7183 C   0  0  0  0  0  0  0  0  0  0  0  0
  -10.4240   32.5295   -0.4770 C   0  0  0  0  0  0  0  0  0  0  0  0
   -7.5242   30.3168   -3.3117 C   0  0  0  0  0  0  0  0  0  0  0  0
   -3.5554   28.5177   -5.3747 C   0  0  1  0  0  0  0  0  0  0  0  0
   -2.8899   30.6074   -1.8299 N   0  0  0  0  0  0  0  0  0  0  0  0
   -6.7539   29.7801   -4.2156 C   0  0  0  0  0  0  0  0  0  0  0  0
  -12.7915   33.1812    0.2904 O   0  0  0  0  0  0  0  0  0  0  0  0
  -11.4560   33.0847    0.3939 C   0  0  0  0  0  0  0  0  0  0  0  0
   -3.3737   29.8469   -3.4909 C   0  0  0  0  0  0  0  0  0  0  0  0
   -4.3377   28.1707   -7.4095 O   0  0  0  0  0  0  0  0  0  0  0  0
  -10.1654   30.9950   -3.3037 C   0  0  2  0  0  0  0  0  0  0  0  0
  -10.0803   29.9129   -4.2970 C   0  0  0  0  0  0  0  0  0  0  0  0
   -3.9816   31.8545   -0.0372 N   0  0  0  0  0  0  0  0  0  0  0  0
   -4.8698   28.0451   -6.8721 C   0  0  0  0  0  0  0  0  0  0  0  0
   -8.9942   29.5851   -4.7226 C   0  0  0  0  0  0  0  0  0  0  0  0
   -7.6468   29.5009   -4.9823 N   0  0  0  0  0  0  0  0  0  0  0  0
   -3.0789   28.7362   -5.5198 O   0  0  0  0  0  0  0  0  0  0  0  0
   -3.8947   30.9478   -1.8182 C   0  0  0  0  0  0  0  0  0  0  0  0
   -4.7942   31.3708   -1.4797 N   0  0  0  0  0  0  0  0  0  0  0  0
  3  1  1  0
  4  3  1  0
  5  1  2  0
  8  2  1  0
  8  5  2  0
 10  4  2  3
 10  9  1  0
 11  2  1  0
 11  6  1  0
 11  7  2  0
 13  1  1  0
 13  3  1  0
 13 14  1  1
 16  6  1  0
 16 12  1  0
 17 14  1  0
 18  8  1  0
 18 17  1  0
  6 19  1  6
 20  2  2  0
 20  7  1  0
 21 15  1  0
 21 20  1  0
M  END
>  <ID>  (1) 
conformer_0

$$$$
