
     RDKit          3D

 29 31  0  0  0  0  0  0  0  0999 V2000
   -9.3177   29.8399   -4.1615 C   0  0  0  0  0  0  0  0  0  0  0  0
  -10.0532   31.2559   -2.6053 C   0  0  0  0  0  0  0  0  0  0  0  0
  -11.0201   32.9333    2.0910 C   0  0  0  0  0  0  0  0  0  0  0  0
   -4.2903   29.9436   -3.7769 C   0  0  0  0  0  0  0  0  0  0  0  0
   -9.1083   31.0457   -1.9511 C   0  0  0  0  0  0  0  0  0  0  0  0
   -3.2725   28.8819   -5.2354 C   0  0  0  0  0  0  0  0  0  0  0  0
  -10.5005   30.4559   -4.0445 C   0  0  0  0  0  0  0  0  0  0  0  0
   -2.8455   30.5779   -1.2562 N   0  0  0  0  0  0  0  0  0  0  0  0
   -5.8576   27.3891   -7.8567 C   0  0  0  0  0  0  0  0  0  0  0  0
   -8.9884   29.9165   -4.7163 C   0  0  0  0  0  0  0  0  0  0  0  0
   -7.7879   30.5952   -3.0816 C   0  0  0  0  0  0  0  0  0  0  0  0
   -3.9952   31.3351   -1.2525 C   0  0  0  0  0  0  0  0  0  0  0  0
   -3.8512   31.8373   -0.1521 N   0  0  0  0  0  0  0  0  0  0  0  0
   -4.4318   28.1705   -7.2338 O   0  0  0  0  0  0  0  0  0  0  0  0
   -7.7028   29.0090   -5.6731 N   0  0  0  0  0  0  0  0  0  0  0  0
  -12.8480   33.0160    0.7091 O   0  0  0  0  0  0  0  0  0  0  0  0
   -5.2822   31.3165   -1.9436 N   0  0  0  0  0  0  0  0  0  0  0  0
  -11.6849   33.2413    0.9162 C   0  0  0  0  0  0  0  0  0  0  0  0
   -6.8230   30.1346   -3.8469 C   0  0  0  0  0  0  0  0  0  0  0  0
   -5.5088   30.6425   -2.7382 C   0  0  0  0  0  0  0  0  0  0  0  0
   -5.4410   29.1791   -4.7502 C   0  0  0  0  0  0  0  0  0  0  0  0
  -10.2935   32.1154   -0.1381 C   0  0  0  0  0  0  0  0  0  0  0  0
   -4.9730   28.1544   -6.0975 C   0  0  0  0  0  0  0  0  0  0  0  0
   -3.5137   27.9499   -5.3573 O   0  0  0  0  0  0  0  0  0  0  0  0
  -11.2620   34.2507    0.4370 C   0  0  0  0  0  0  0  0  0  0  0  0
   -3.0594   30.1382   -3.0789 N   0  0  0  0  0  0  0  0  0  0  0  0
   -2.8742   30.0397   -2.4685 C   0  0  0  0  0  0  0  0  0  0  0  0
   -7.1393   29.2644   -4.7886 C   0  0  0  0  0  0  0  0  0  0  0  0
  -10.5679   32.1629   -1.1084 C   0  0  0  0  0  0  0  0  0  0  0  0
  5  2  1  0
  7  1  1  0
  7  2  1  0
 10  1  1  0
 11  5  1  0
 12  8  2  0
 13 12  1  0
 14  9  1  0
 15 10  1  0
 17 12  1  0
 18  3  1  0
 18 16  1  0
 19 11  1  0
 20  4  2  0
 20 17  1  0
 20 19  1  0
 21  4  1  0
 22 18  1  0
 23 14  1  0
 23 21  1  0
 24  6  1  0
 24 23  1  0
 25 18  1  0
 26  4  1  0
 27  8  1  0
 27 26  1  0
 28 15  1  0
 28 19  2  0
 28 21  1  0
 29  2  1  0
 29 22  1  0
M  END
>  <ID>  (1) 
conformer_0

$$$$
