
     RDKit          3D

 27 31  0  0  0  0  0  0  0  0999 V2000
   -8.9878   29.9273   -3.9608 C   0  0  0  0  0  0  0  0  0  0  0  0
   -6.5886   29.8020   -4.0661 C   0  0  0  0  0  0  0  0  0  0  0  0
   -7.5659   30.5628   -3.1649 C   0  0  0  0  0  0  0  0  0  0  0  0
   -3.9695   29.9615   -3.5921 C   0  0  0  0  0  0  0  0  0  0  0  0
  -11.3305   33.2536    2.2698 C   0  0  0  0  0  0  0  0  0  0  0  0
   -3.7151   28.8746   -5.4814 C   0  0  0  0  0  0  0  0  0  0  0  0
  -10.4743   29.9226   -4.3988 C   0  0  0  0  0  0  0  0  0  0  0  0
   -8.8538   31.1829   -2.4823 C   0  0  0  0  0  0  0  0  0  0  0  0
   -2.8907   30.5887   -1.0037 N   0  0  0  0  0  0  0  0  0  0  0  0
   -5.3203   30.3335   -2.9582 C   0  0  0  0  0  0  0  0  0  0  0  0
   -8.3531   29.5997   -4.7450 C   0  0  0  0  0  0  0  0  0  0  0  0
   -4.4883   28.0707   -6.7608 O   0  0  0  0  0  0  0  0  0  0  0  0
   -4.0042   31.7092    0.0841 N   0  0  0  0  0  0  0  0  0  0  0  0
  -12.7414   32.9871    0.3501 O   0  0  0  0  0  0  0  0  0  0  0  0
   -5.2783   31.0831   -2.0061 N   0  0  0  0  0  0  0  0  0  0  0  0
   -6.0200   26.7121   -8.3596 C   0  0  0  0  0  0  0  0  0  0  0  0
   -5.7290   27.6012   -7.1515 C   0  0  0  0  0  0  0  0  0  0  0  0
  -10.6008   30.9875   -3.3173 C   0  0  0  0  0  0  0  0  0  0  0  0
   -3.9359   31.1836   -1.2748 C   0  0  0  0  0  0  0  0  0  0  0  0
  -11.4505   33.0530    0.4696 C   0  0  0  0  0  0  0  0  0  0  0  0
   -7.4557   28.9936   -5.5267 N   0  0  0  0  0  0  0  0  0  0  0  0
   -9.9652   31.6656   -1.8488 C   0  0  0  0  0  0  0  0  0  0  0  0
  -10.2919   32.4309   -1.0577 C   0  0  0  0  0  0  0  0  0  0  0  0
   -2.6296   30.0076   -2.2510 C   0  0  0  0  0  0  0  0  0  0  0  0
   -5.8626   28.6586   -5.2350 C   0  0  0  0  0  0  0  0  0  0  0  0
   -2.8763   29.8477   -2.9168 N   0  0  0  0  0  0  0  0  0  0  0  0
  -10.7462   32.8466    0.7520 C   0  0  0  0  0  0  0  0  0  0  0  0
  3  1  1  0
  3  2  1  0
  7  1  1  0
  8  1  1  0
  8  3  1  0
 10  2  1  0
 10  4  1  0
 11  1  1  0
 11  2  1  0
 12  6  1  0
 15 10  1  0
 17 12  1  0
 17 16  1  0
 18  7  1  0
 19  9  2  0
 19 13  1  0
 19 15  1  0
 20 14  1  0
 21 11  1  0
 22  8  1  0
 22 18  1  0
 23 22  1  0
 24  9  1  0
 25  2  1  0
 25  6  1  0
 25 21  1  0
 26  4  1  0
 26 24  2  0
 27  5  1  0
 27 20  1  0
 27 23  1  0
M  END
>  <ID>  (1) 
conformer_0

$$$$
