
     RDKit          3D

 23 25  0  0  0  0  0  0  0  0999 V2000
   -9.7009   29.9453   -3.9531 C   0  0  0  0  0  0  0  0  0  0  0  0
  -10.5331   32.9051   -0.3958 C   0  0  0  0  0  0  0  0  0  0  0  0
   -5.1558   30.5698   -3.1049 C   0  0  0  0  0  0  0  0  0  0  0  0
  -11.0679   33.4335    1.1925 C   0  0  0  0  0  0  0  0  0  0  0  0
  -10.1157   31.9324   -1.4948 C   0  0  0  0  0  0  0  0  0  0  0  0
   -5.4246   28.2414   -5.8515 C   0  0  0  0  0  0  0  0  0  0  0  0
   -8.0980   29.8291   -4.3311 C   0  0  1  0  0  0  0  0  0  0  0  0
   -2.7812   30.3324   -1.6185 N   0  0  0  0  0  0  0  0  0  0  0  0
  -10.4656   30.9699   -3.6406 C   0  0  0  0  0  0  0  0  0  0  0  0
   -3.3354   28.8502   -5.4222 C   0  0  0  0  0  0  0  0  0  0  0  0
   -3.9040   31.1286   -1.4318 C   0  0  0  0  0  0  0  0  0  0  0  0
   -4.4940   27.9441   -7.4636 O   0  0  0  0  0  0  0  0  0  0  0  0
   -3.8656   31.6739   -0.0273 N   0  0  0  0  0  0  0  0  0  0  0  0
   -9.4067   31.3758   -2.1324 C   0  0  0  0  0  0  0  0  0  0  0  0
   -7.6669   29.1068   -5.4471 N   0  0  0  0  0  0  0  0  0  0  0  0
   -5.0168   31.2762   -1.9557 N   0  0  0  0  0  0  0  0  0  0  0  0
  -11.7941   33.0758    0.3864 C   0  0  0  0  0  0  0  0  0  0  0  0
   -8.0744   30.6254   -2.9513 C   0  0  2  0  0  0  0  0  0  0  0  0
   -3.3004   30.0096   -3.0604 C   0  0  1  0  0  0  0  0  0  0  0  0
   -5.8196   27.5053   -5.6354 C   0  0  0  0  0  0  0  0  0  0  0  0
  -12.9660   32.9151    0.4109 O   0  0  0  0  0  0  0  0  0  0  0  0
   -6.6124   30.0663   -3.9617 C   0  0  0  0  0  0  0  0  0  0  0  0
   -5.7636   27.3606   -7.4961 C   0  0  0  0  0  0  0  0  0  0  0  0
  5  2  2  0
  7  1  1  0
  9  1  1  0
 10  6  1  0
 11  8  2  0
 13 11  1  0
 14  5  2  0
 14  9  1  0
  7 15  1  1
 16  3  2  0
 16 11  1  0
 17  2  1  0
 17  4  2  3
 18  7  1  0
 18 14  1  0
 19  3  1  0
 19  8  1  0
 19 10  1  1
 20  6  1  0
 21 17  1  0
 22  3  1  0
 22  7  1  0
 18 22  1  6
 23 12  1  0
 23 20  1  0
M  END
>  <ID>  (1) 
conformer_0

$$$$
