
     RDKit          3D

 24 26  0  0  0  0  0  0  0  0999 V2000
  -10.0802   30.3315   -4.0997 C   0  0  2  0  0  0  0  0  0  0  0  0
   -2.7205   29.9827   -2.3185 C   0  0  0  0  0  0  0  0  0  0  0  0
  -10.2007   32.0026   -1.4706 C   0  0  0  0  0  0  0  0  0  0  0  0
  -11.1193   33.6939    1.6977 C   0  0  0  0  0  0  0  0  0  0  0  0
  -10.6753   33.0724   -0.3078 C   0  0  0  0  0  0  0  0  0  0  0  0
   -5.1321   30.4090   -3.0092 C   0  0  0  0  0  0  0  0  0  0  0  0
   -7.0138   29.8507   -4.1274 C   0  0  1  0  0  0  0  0  0  0  0  0
   -4.8061   27.8548   -7.8313 O   0  0  0  0  0  0  0  0  0  0  0  0
   -4.2704   28.2835   -5.6446 C   0  0  0  0  0  0  0  0  0  0  0  0
   -5.4244   27.5861   -8.4588 C   0  0  0  0  0  0  0  0  0  0  0  0
   -2.6361   30.6082   -1.1615 N   0  0  0  0  0  0  0  0  0  0  0  0
  -10.3928   31.4228   -2.6921 C   0  0  1  0  0  0  0  0  0  0  0  0
  -11.6432   33.3269    0.5076 C   0  0  0  0  0  0  0  0  0  0  0  0
   -5.3461   28.8582   -5.0417 C   0  0  0  0  0  0  0  0  0  0  0  0
   -5.3836   31.0865   -2.3448 N   0  0  0  0  0  0  0  0  0  0  0  0
   -3.9181   31.2600   -1.4639 C   0  0  0  0  0  0  0  0  0  0  0  0
   -7.7837   29.5660   -4.8751 N   0  0  0  0  0  0  0  0  0  0  0  0
   -9.1740   30.6723   -2.8322 C   0  0  2  0  0  0  0  0  0  0  0  0
   -3.9183   31.9676   -0.3156 N   0  0  0  0  0  0  0  0  0  0  0  0
  -12.8576   33.0126    0.2609 O   0  0  0  0  0  0  0  0  0  0  0  0
   -8.9744   29.8643   -4.5249 C   0  0  0  0  0  0  0  0  0  0  0  0
   -7.4252   30.0834   -3.4806 C   0  0  0  0  0  0  0  0  0  0  0  0
   -4.1024   29.7110   -3.6015 C   0  0  0  0  0  0  0  0  0  0  0  0
   -2.6012   29.8170   -3.0678 N   0  0  0  0  0  0  0  0  0  0  0  0
  5  3  1  0
  9  8  1  0
 10  8  1  0
 11  2  1  0
 12  1  1  0
 12  3  1  1
 13  4  2  3
 13  5  1  0
 14  7  1  0
 14  9  1  0
 15  6  2  0
 16 11  2  0
 16 15  1  0
 17  7  1  0
 18  1  1  0
 18 12  1  0
 19 16  1  0
 20 13  1  0
  1 21  1  6
 21 17  1  0
  7 22  1  1
 18 22  1  6
 23  6  1  0
 23 14  2  3
 24  2  1  0
 24 23  1  0
M  END
>  <ID>  (1) 
conformer_0

$$$$
