
     RDKit          3D

 22 23  0  0  0  0  0  0  0  0999 V2000
   -9.5037   31.7470   -1.9430 C   0  0  0  0  0  0  0  0  0  0  0  0
   -8.8613   30.3952   -3.3135 C   0  0  1  0  0  0  0  0  0  0  0  0
   -3.8319   31.0125   -1.5970 C   0  0  0  0  0  0  0  0  0  0  0  0
   -6.5723   29.9705   -4.0660 C   0  0  0  0  0  0  0  0  0  0  0  0
   -3.9563   28.3001   -5.3637 C   0  0  0  0  0  0  0  0  0  0  0  0
   -8.4821   29.6205   -4.8380 C   0  0  0  0  0  0  0  0  0  0  0  0
   -7.6114   30.8157   -3.0599 C   0  0  0  0  0  0  0  0  0  0  0  0
   -4.9964   27.8022   -7.2708 O   0  0  0  0  0  0  0  0  0  0  0  0
   -2.9223   29.6821   -3.2122 N   0  0  0  0  0  0  0  0  0  0  0  0
  -11.3159   33.1272    0.2524 C   0  0  0  0  0  0  0  0  0  0  0  0
   -5.0520   30.2522   -3.2434 C   0  0  0  0  0  0  0  0  0  0  0  0
   -7.9977   29.2335   -5.5415 N   0  0  0  0  0  0  0  0  0  0  0  0
  -12.5749   33.0645    0.3031 O   0  0  0  0  0  0  0  0  0  0  0  0
   -5.7325   27.6528   -7.0852 C   0  0  0  0  0  0  0  0  0  0  0  0
  -10.3268   30.7764   -3.5149 C   0  0  2  0  0  0  0  0  0  0  0  0
   -3.9901   32.0450   -0.1340 N   0  0  0  0  0  0  0  0  0  0  0  0
   -5.1110   31.2703   -1.9867 N   0  0  0  0  0  0  0  0  0  0  0  0
   -3.2881   29.8090   -3.0088 C   0  0  2  0  0  0  0  0  0  0  0  0
  -10.2682   29.8500   -4.7991 C   0  0  0  0  0  0  0  0  0  0  0  0
  -10.2235   31.6314   -1.4640 C   0  0  0  0  0  0  0  0  0  0  0  0
   -2.8887   30.7585   -1.4066 N   0  0  0  0  0  0  0  0  0  0  0  0
  -10.4667   33.1444   -0.0548 C   0  0  0  0  0  0  0  0  0  0  0  0
  6  2  1  0
  2  7  1  6
  7  4  1  0
  8  5  1  0
 11  4  1  0
 12  6  2  3
 13 10  1  0
 14  8  1  0
 15  1  1  6
 15  2  1  0
 16  3  1  0
 17  3  1  0
 17 11  2  0
 18  3  1  0
 18  5  1  0
 18  9  1  1
 18 11  1  0
 19  6  1  0
 19 15  1  0
 20  1  1  0
 21  3  1  0
 22 10  1  0
 22 20  1  0
M  END
>  <ID>  (1) 
conformer_0

$$$$
