
     RDKit          3D

 31 34  0  0  0  0  0  0  0  0999 V2000
    8.2322   11.1056   13.2168 C   0  0  0  0  0  0  0  0  0  0  0  0
   13.4515   16.9964   13.8067 C   0  0  0  0  0  0  0  0  0  0  0  0
   12.7776   15.9535   12.6826 C   0  0  0  0  0  0  0  0  0  0  0  0
   10.1724   14.6394   14.7877 C   0  0  0  0  0  0  0  0  0  0  0  0
    9.1792   14.2099   15.4712 N   0  0  0  0  0  0  0  0  0  0  0  0
    7.3631   11.2015   14.2954 N   0  0  0  0  0  0  0  0  0  0  0  0
   12.7065   14.5865   13.3390 O   0  0  0  0  0  0  0  0  0  0  0  0
   14.2085   19.6786   16.6954 P   0  0  0  0  0  0  0  0  0  0  0  0
   10.3824   13.9730   13.6155 N   0  0  0  0  0  0  0  0  0  0  0  0
   11.0779   15.5248   11.9412 C   0  0  0  0  0  0  0  0  0  0  0  0
   14.5648   21.8879   14.8546 P   0  0  0  0  0  4  0  0  0  0  0  0
    6.6887   12.3102   16.1391 N   0  0  0  0  0  0  0  0  0  0  0  0
   11.7018   17.6944   11.4037 O   0  0  0  0  0  0  0  0  0  0  0  0
   12.3692   16.9834   14.7074 O   0  0  0  0  0  0  0  0  0  0  0  0
   11.7923   17.9453   16.8054 O   0  0  0  0  0  0  0  0  0  0  0  0
   14.5027   20.5910   15.3988 O   0  0  0  0  0  0  0  0  0  0  0  0
    7.4536   12.2583   15.2309 C   0  0  0  0  0  0  0  0  0  0  0  0
   13.7031   22.7338   15.8495 O   0  0  0  0  0  0  0  0  0  0  0  0
   15.2640   19.2222   17.6465 O   0  0  0  0  0  0  0  0  0  0  0  0
   13.1393   20.1585   17.4091 O   0  0  0  0  0  0  0  0  0  0  0  0
   11.4263   15.0837   10.6773 O   0  0  0  0  0  0  0  0  0  0  0  0
   16.0819   22.3545   15.3030 O   0  0  0  0  0  0  0  0  0  0  0  0
   14.3393   21.9114   13.4994 O   0  0  0  0  0  1  0  0  0  0  0  0
    9.0076   11.8867   12.9670 N   0  0  0  0  0  0  0  0  0  0  0  0
    8.6711   13.0280   14.8134 C   0  0  0  0  0  0  0  0  0  0  0  0
   11.4846   14.0771   12.6187 C   0  0  0  0  0  0  0  0  0  0  0  0
   12.3233   17.9774   15.9140 P   0  0  0  0  0  5  0  0  0  0  0  0
   11.9965   19.0826   15.0271 O   0  0  0  0  0  0  0  0  0  0  0  0
    9.4773   12.9643   13.6697 C   0  0  0  0  0  0  0  0  0  0  0  0
   14.0432   18.3612   16.0520 O   0  0  0  0  0  0  0  0  0  0  0  0
   11.8275   17.0168   12.4529 C   0  0  0  0  0  0  0  0  0  0  0  0
  3  2  1  0
  5  4  2  0
  6  1  2  0
  7  3  1  0
  9  4  1  0
 10  3  1  0
 14  2  1  0
 16  8  1  0
 16 11  1  0
 17  6  1  0
 17 12  1  0
 18 11  1  0
 20  8  1  0
 21 10  1  0
 22 11  1  0
 23 11  1  0
 24  1  1  0
 25  5  1  0
 25 17  2  0
 26  7  1  0
 26  9  1  0
 26 10  1  0
 27 14  1  0
 27 15  1  0
 27 19  1  0
 28 27  1  0
 29  9  1  0
 29 24  2  0
 29 25  1  0
 30  8  1  0
 30 27  1  0
 31  3  1  0
 31 10  1  0
 31 13  1  0
M  RAD  2  11   2  23   2
M  END
>  <ID>  (1) 
conformer_0

$$$$
