
     RDKit          3D

 30 31  0  0  0  0  0  0  0  0999 V2000
    8.4289   11.1877   12.9708 C   0  0  0  0  0  0  0  0  0  0  0  0
   11.4914   15.7023   12.2518 C   0  0  0  0  0  0  0  0  0  0  0  0
   12.1961   16.8381   12.6683 C   0  0  0  0  0  0  0  0  0  0  0  0
    9.4641   12.8128   13.6002 C   0  0  0  0  0  0  0  0  0  0  0  0
    9.1295   14.1793   15.5845 N   0  0  0  0  0  0  0  0  0  0  0  0
    7.5578   11.2039   13.9079 N   0  0  0  0  0  0  0  0  0  0  0  0
   12.7330   14.7482   13.5734 O   0  0  0  0  0  0  0  0  0  0  0  0
   14.4195   22.1543   15.0682 P   0  0  0  0  0  4  0  0  0  0  0  0
    8.8803   13.1939   14.7821 C   0  0  0  0  0  0  0  0  0  0  0  0
   11.5519   14.4002   12.7749 C   0  0  0  0  0  0  0  0  0  0  0  0
   11.7008   18.3200   16.8116 O   0  0  0  0  0  0  0  0  0  0  0  0
   12.5855   16.8033   15.0204 O   0  0  0  0  0  0  0  0  0  0  0  0
   13.8296   22.6941   16.2022 O   0  0  0  0  0  0  0  0  0  0  0  0
   10.4650   14.1183   13.9177 N   0  0  0  0  0  0  0  0  0  0  0  0
    6.7762   12.0900   15.9057 N   0  0  0  0  0  0  0  0  0  0  0  0
   15.4123   19.8816   17.7128 O   0  0  0  0  0  1  0  0  0  0  0  0
   14.0814   22.3553   13.8837 O   0  0  0  0  0  1  0  0  0  0  0  0
   16.2583   22.0464   15.6189 O   0  0  0  0  0  0  0  0  0  0  0  0
   11.4594   15.2733   10.9310 O   0  0  0  0  0  0  0  0  0  0  0  0
   12.7999   18.2215   16.0792 P   0  0  0  0  0  4  0  0  0  0  0  0
    9.3830   11.6547   12.5774 N   0  0  0  0  0  0  0  0  0  0  0  0
   13.1792   20.4305   17.2791 O   0  0  0  0  0  0  0  0  0  0  0  0
   11.2440   17.6567   11.6926 O   0  0  0  0  0  0  0  0  0  0  0  0
   10.2078   14.8799   14.9943 C   0  0  0  0  0  0  0  0  0  0  0  0
   14.6222   20.4507   15.3903 O   0  0  0  0  0  0  0  0  0  0  0  0
   13.1805   16.7054   13.6994 C   0  0  0  0  0  0  0  0  0  0  0  0
   14.2364   18.2702   16.5979 O   0  0  0  0  0  0  0  0  0  0  0  0
   12.5646   18.8878   15.1367 O   0  0  0  0  0  1  0  0  0  0  0  0
   14.6108   20.1527   16.7602 P   0  0  0  0  0  4  0  0  0  0  0  0
    7.5401   12.0516   14.9817 C   0  0  0  0  0  0  0  0  0  0  0  0
  3  2  1  0
  6  1  1  0
  9  4  2  0
  9  5  1  0
 10  2  1  0
 10  7  1  0
 13  8  1  0
 14  4  1  0
 14 10  1  0
 17  8  1  0
 18  8  1  0
 19  2  1  0
 20 11  1  0
 20 12  1  0
 21  1  1  0
 21  4  1  0
 23  3  1  0
 24  5  2  0
 24 14  1  0
 25  8  1  0
 26  3  1  0
 26 12  1  0
 27 20  1  0
 28 20  1  0
 29 16  1  0
 29 22  1  0
 29 25  1  0
 29 27  1  0
 30  6  2  0
 30  9  1  0
 30 15  1  0
M  RAD  6   8   2  16   2  17   2  20   2  28   2  29   2
M  END
>  <ID>  (1) 
conformer_0

$$$$
