
     RDKit          3D

 31 33  0  0  0  0  0  0  0  0999 V2000
   11.5164   14.6292   12.4157 C   0  0  0  0  0  0  0  0  0  0  0  0
    9.6469   12.8575   13.6180 C   0  0  0  0  0  0  0  0  0  0  0  0
   11.2721   15.7864   11.9624 C   0  0  0  0  0  0  0  0  0  0  0  0
   10.2411   14.6485   14.7456 C   0  0  0  0  0  0  0  0  0  0  0  0
    7.2882   10.9561   14.2044 N   0  0  0  0  0  0  0  0  0  0  0  0
    9.1685   14.1653   15.5169 N   0  0  0  0  0  0  0  0  0  0  0  0
   10.5016   13.9765   13.6804 N   0  0  0  0  0  0  0  0  0  0  0  0
   12.8595   14.7895   13.4509 O   0  0  0  0  0  0  0  0  0  0  0  0
    6.8494   12.0447   15.9400 N   0  0  0  0  0  0  0  0  0  0  0  0
   13.2486   20.6203   17.6368 O   0  0  0  0  0  0  0  0  0  0  0  0
   11.6230   18.3217   16.8207 O   0  0  0  0  0  0  0  0  0  0  0  0
    7.6618   12.1199   15.0829 C   0  0  0  0  0  0  0  0  0  0  0  0
   14.6159   22.4037   15.3328 P   0  0  0  0  0  5  0  0  0  0  0  0
   12.3168   17.1604   14.8454 O   0  0  0  0  0  0  0  0  0  0  0  0
   11.4495   17.1882   11.1860 O   0  0  0  0  0  0  0  0  0  0  0  0
   12.2887   18.3118   15.7636 P   0  0  0  0  0  4  0  0  0  0  0  0
   12.5966   16.4705   12.6225 C   0  0  0  0  0  0  0  0  0  0  0  0
   15.4631   19.9262   17.8049 O   0  0  0  0  0  0  0  0  0  0  0  0
   13.7781   22.9172   16.4268 O   0  0  0  0  0  0  0  0  0  0  0  0
   13.7704   22.3293   13.9789 O   0  0  0  0  0  0  0  0  0  0  0  0
   15.8853   22.7089   15.2594 O   0  0  0  0  0  0  0  0  0  0  0  0
   11.5656   14.8555   10.5948 O   0  0  0  0  0  0  0  0  0  0  0  0
    8.7947   10.8822   12.2984 N   0  0  0  0  0  0  0  0  0  0  0  0
    8.4232   11.1251   13.1104 C   0  0  0  0  0  0  0  0  0  0  0  0
    9.1451   11.7965   13.0963 N   0  0  0  0  0  0  0  0  0  0  0  0
   12.0927   19.2910   14.8621 O   0  0  0  0  0  1  0  0  0  0  0  0
   14.2800   20.3191   16.9492 P   0  0  0  0  0  0  0  0  0  0  0  0
   14.7759   20.8390   15.8618 O   0  0  0  0  0  0  0  0  0  0  0  0
   13.2985   16.9514   13.8529 C   0  0  0  0  0  0  0  0  0  0  0  0
   13.8233   18.6074   16.1290 O   0  0  0  0  0  0  0  0  0  0  0  0
    8.8888   12.9761   14.7755 C   0  0  0  0  0  0  0  0  0  0  0  0
  3  1  1  0
  6  4  2  0
  7  1  1  0
  7  2  1  0
  7  4  1  0
  8  1  1  0
 12  5  1  0
 12  9  1  0
 15  3  1  0
 16 11  1  0
 16 14  1  0
 17  3  1  0
 18 13  1  0
 19 13  1  0
 20 13  1  0
 21 13  1  0
 22  3  1  0
 24  5  2  0
 24 23  1  0
 25  2  1  0
 25 23  1  0
 25 24  1  0
 26 16  1  0
 27 10  1  0
 28 13  1  0
 28 27  1  0
 29 14  1  0
 29 17  1  0
 30 16  1  0
 30 27  1  0
 31  2  1  0
 31  6  1  0
 31 12  2  0
M  RAD  2  16   2  26   2
M  END
>  <ID>  (1) 
conformer_0

$$$$
