
     RDKit          3D

 31 33  0  0  0  0  0  0  0  0999 V2000
   11.9944   16.9723   12.3221 C   0  0  0  0  0  0  0  0  0  0  0  0
    9.5647   12.9765   13.6351 C   0  0  0  0  0  0  0  0  0  0  0  0
   11.3378   15.3684   11.7930 C   0  0  0  0  0  0  0  0  0  0  0  0
   10.1374   14.8355   14.7798 C   0  0  0  0  0  0  0  0  0  0  0  0
    9.1228   14.3479   15.5065 N   0  0  0  0  0  0  0  0  0  0  0  0
    7.6362   11.2121   13.9696 N   0  0  0  0  0  0  0  0  0  0  0  0
   12.6533   14.6288   13.4619 O   0  0  0  0  0  0  0  0  0  0  0  0
   14.4351   22.2149   15.3521 P   0  0  0  0  0  4  0  0  0  0  0  0
   10.3930   13.9622   13.6880 N   0  0  0  0  0  0  0  0  0  0  0  0
   13.5561   17.0403   14.1593 C   0  0  0  0  0  0  0  0  0  0  0  0
   11.4478   17.9887   16.9140 O   0  0  0  0  0  0  0  0  0  0  0  0
    7.6274   12.3051   15.0974 C   0  0  0  0  0  0  0  0  0  0  0  0
   13.9170   19.8639   15.5234 O   0  0  0  0  0  1  0  0  0  0  0  0
   12.8082   17.2054   15.4506 O   0  0  0  0  0  0  0  0  0  0  0  0
   12.1291   17.9375   11.5121 O   0  0  0  0  0  0  0  0  0  0  0  0
   13.7196   22.0699   14.1102 O   0  0  0  0  0  1  0  0  0  0  0  0
   13.6660   22.8313   16.4490 O   0  0  0  0  0  0  0  0  0  0  0  0
   11.6285   14.9858   10.5921 O   0  0  0  0  0  0  0  0  0  0  0  0
   12.3569   18.1639   16.0113 P   0  0  0  0  0  4  0  0  0  0  0  0
   13.0644   20.4723   17.4916 O   0  0  0  0  0  0  0  0  0  0  0  0
    6.7010   12.1420   15.8877 N   0  0  0  0  0  0  0  0  0  0  0  0
    9.4764   11.8738   12.7967 N   0  0  0  0  0  0  0  0  0  0  0  0
   15.5973   22.3911   15.2654 O   0  0  0  0  0  0  0  0  0  0  0  0
    8.3646   11.1697   13.2130 C   0  0  0  0  0  0  0  0  0  0  0  0
   15.5982   20.8754   17.1493 O   0  0  0  0  0  0  0  0  0  0  0  0
   11.4675   14.0470   12.4971 C   0  0  0  0  0  0  0  0  0  0  0  0
   14.2901   20.0093   16.9603 P   0  0  0  0  0  0  0  0  0  0  0  0
   14.5844   18.7601   17.4685 O   0  0  0  0  0  0  0  0  0  0  0  0
   11.6386   18.6865   15.1119 O   0  0  0  0  0  0  0  0  0  0  0  0
    8.8365   13.2123   14.8246 C   0  0  0  0  0  0  0  0  0  0  0  0
   12.9706   16.0329   12.8649 C   0  0  0  0  0  0  0  0  0  0  0  0
  3  1  1  0
  5  4  2  0
  9  2  1  0
  9  4  1  0
 12  6  1  0
 14 10  1  0
 15  1  1  0
 16  8  1  0
 17  8  1  0
 18  3  1  0
 19 11  1  0
 19 13  1  0
 19 14  1  0
 21 12  1  0
 22  2  1  0
 23  8  1  0
 24  6  2  0
 24 22  1  0
 25  8  1  0
 26  3  1  0
 26  7  1  0
 26  9  1  0
 27 20  1  0
 27 25  1  0
 28 19  1  0
 28 27  1  0
 29 10  1  0
 30  2  1  0
 30  5  1  0
 30 12  2  0
 31  1  1  0
 31  7  1  0
 31 10  1  0
M  RAD  4   8   2  13   2  16   2  19   2
M  END
>  <ID>  (1) 
conformer_0

$$$$
