
     RDKit          3D

 29 28  0  0  0  0  0  0  0  0999 V2000
   11.2675   14.1905   12.4885 C   0  0  1  0  0  0  0  0  0  0  0  0
    8.4258   11.6089   13.4721 C   0  0  0  0  0  0  0  0  0  0  0  0
   11.3287   15.4573   11.9125 C   0  0  0  0  0  0  0  0  0  0  0  0
    9.8692   14.5672   14.8799 C   0  0  0  0  0  0  0  0  0  0  0  0
    9.0526   14.2986   15.6861 N   0  0  0  0  0  0  0  0  0  0  0  0
    7.3368   11.3176   14.2617 N   0  0  0  0  0  0  0  0  0  0  0  0
   12.5161   14.5766   13.4678 O   0  0  0  0  0  0  0  0  0  0  0  0
   13.4013   20.7036   17.4925 O   0  0  0  0  0  0  0  0  0  0  0  0
    8.5934   11.0022   12.7003 N   0  0  0  0  0  0  0  0  0  0  0  0
   12.5878   18.1044   16.0134 P   0  0  2  0  0  4  0  0  0  0  0  0
   10.2556   14.0061   13.8397 N   0  0  0  0  0  0  0  0  0  0  0  0
   14.7502   22.3646   14.9224 P   0  0  0  0  0  5  0  0  0  0  0  0
   12.3682   16.1916   12.4886 C   0  0  0  0  0  0  0  0  0  0  0  0
   12.6131   16.8658   15.3079 O   0  0  0  0  0  0  0  0  0  0  0  0
   16.1458   22.6344   14.6773 O   0  0  0  0  0  0  0  0  0  0  0  0
    7.6943   12.6088   15.2066 C   0  0  0  0  0  0  0  0  0  0  0  0
   14.2198   18.2365   16.7645 O   0  0  0  0  0  0  0  0  0  0  0  0
   15.7118   20.3820   17.4219 O   0  0  0  0  0  0  0  0  0  0  0  0
   11.6938   14.6691   10.5424 O   0  0  0  0  0  0  0  0  0  0  0  0
   11.5948   16.9575   11.1887 O   0  0  0  0  0  0  0  0  0  0  0  0
   13.8536   22.2300   13.7512 O   0  0  0  0  0  0  0  0  0  0  0  0
   11.8039   18.5966   16.9538 O   0  0  0  0  0  0  0  0  0  0  0  0
   14.1433   23.1117   15.9981 O   0  0  0  0  0  0  0  0  0  0  0  0
   14.4800   20.1475   16.7895 P   0  0  0  0  0  0  0  0  0  0  0  0
    9.1071   13.1310   14.3135 C   0  0  0  0  0  0  0  0  0  0  0  0
    6.4419   12.0212   15.8098 N   0  0  0  0  0  0  0  0  0  0  0  0
   12.1634   18.7772   15.1398 O   0  0  0  0  0  1  0  0  0  0  0  0
   14.6369   20.3943   15.4125 O   0  0  0  0  0  0  0  0  0  0  0  0
   13.2606   16.5202   13.5422 C   0  0  0  0  0  0  0  0  0  0  0  0
  3  1  1  0
  5  4  2  3
  6  2  2  3
  1  7  1  1
  9  2  1  0
 11  1  1  0
 11  4  1  0
 13  3  1  0
 14 10  1  0
 15 12  1  0
 16  6  1  0
 17 10  1  0
 18 12  1  0
 19  3  1  0
 20  3  1  0
 21 12  1  0
 10 22  1  1
 23 12  1  0
 24  8  1  0
 24 17  1  0
 24 18  1  0
 25 11  1  0
 25 16  1  0
 26 16  2  3
 27 10  1  0
 28 12  1  0
 29 13  1  0
 29 14  1  0
M  RAD  2  10   2  27   2
M  END
>  <ID>  (1) 
conformer_0

$$$$
