
     RDKit          3D

 30 31  0  0  0  0  0  0  0  0999 V2000
   11.2762   15.6715   12.1819 C   0  0  0  0  0  0  0  0  0  0  0  0
    9.3828   12.9794   13.8293 C   0  0  0  0  0  0  0  0  0  0  0  0
   11.3549   14.5343   12.6580 C   0  0  0  0  0  0  0  0  0  0  0  0
   10.1118   14.7765   15.0423 C   0  0  0  0  0  0  0  0  0  0  0  0
    9.0261   14.2231   15.7811 N   0  0  0  0  0  0  0  0  0  0  0  0
    7.6650   11.3765   14.0334 N   0  0  0  0  0  0  0  0  0  0  0  0
   12.6071   14.6792   13.6304 O   0  0  0  0  0  0  0  0  0  0  0  0
    8.6511   13.2527   15.1187 C   0  0  0  0  0  0  0  0  0  0  0  0
   10.2899   14.0638   13.9706 N   0  0  0  0  0  0  0  0  0  0  0  0
    9.5263   11.9013   12.5801 N   0  0  0  0  0  0  0  0  0  0  0  0
   12.6309   17.2263   14.9165 O   0  0  0  0  0  0  0  0  0  0  0  0
   14.5433   22.1909   15.1608 P   0  0  0  0  0  4  0  0  0  0  0  0
   15.4168   19.6959   18.0192 O   0  0  0  0  0  1  0  0  0  0  0  0
   12.3361   16.6184   12.8014 C   0  0  0  0  0  0  0  0  0  0  0  0
   12.8631   18.7200   15.8472 P   0  0  0  0  0  4  0  0  0  0  0  0
   13.4472   20.8501   17.6624 O   0  0  0  0  0  0  0  0  0  0  0  0
   11.4370   17.5840   11.5167 O   0  0  0  0  0  0  0  0  0  0  0  0
   16.2922   21.8939   15.9310 O   0  0  0  0  0  0  0  0  0  0  0  0
   14.4554   20.5361   15.6480 O   0  0  0  0  0  0  0  0  0  0  0  0
   13.9447   23.0418   15.9850 O   0  0  0  0  0  0  0  0  0  0  0  0
   13.8736   22.0064   13.7847 O   0  0  0  0  0  1  0  0  0  0  0  0
    6.8205   12.4108   16.3687 N   0  0  0  0  0  0  0  0  0  0  0  0
   11.9430   18.3106   16.8833 O   0  0  0  0  0  0  0  0  0  0  0  0
    8.2654   11.3037   13.4104 C   0  0  0  0  0  0  0  0  0  0  0  0
   11.4951   15.3435   10.8819 O   0  0  0  0  0  0  0  0  0  0  0  0
   14.8729   20.5330   17.2383 P   0  0  0  0  0  4  0  0  0  0  0  0
   13.1913   16.7859   13.8003 C   0  0  0  0  0  0  0  0  0  0  0  0
   12.3099   19.2007   15.0676 O   0  0  0  0  0  1  0  0  0  0  0  0
    7.3726   12.2998   15.3940 C   0  0  0  0  0  0  0  0  0  0  0  0
   14.0208   18.4625   16.6261 O   0  0  0  0  0  0  0  0  0  0  0  0
  3  1  1  0
  5  4  2  0
  7  3  1  0
  8  2  1  0
  8  5  1  0
  9  2  1  0
  9  3  1  0
  9  4  1  0
 10  2  1  0
 14  1  1  0
 15 11  1  0
 17 14  1  0
 18 12  1  0
 19 12  1  0
 20 12  1  0
 21 12  1  0
 23 15  1  0
 24  6  2  0
 24 10  1  0
 25  1  1  0
 26 13  1  0
 26 16  1  0
 26 19  1  0
 27 11  1  0
 27 14  1  0
 28 15  1  0
 29  6  1  0
 29  8  2  0
 29 22  1  0
 30 15  1  0
 30 26  1  0
M  RAD  6  12   2  13   2  15   2  21   2  26   2  28   2
M  END
>  <ID>  (1) 
conformer_0

$$$$
