
     RDKit          3D

 31 33  0  0  0  0  0  0  0  0999 V2000
   11.2970   14.2194   12.5293 C   0  0  0  0  0  0  0  0  0  0  0  0
    7.6769   12.2940   15.2546 C   0  0  0  0  0  0  0  0  0  0  0  0
   11.0498   15.4308   11.9143 C   0  0  0  0  0  0  0  0  0  0  0  0
    9.5718   13.1520   13.7102 C   0  0  0  0  0  0  0  0  0  0  0  0
    9.2284   14.4912   15.6259 N   0  0  0  0  0  0  0  0  0  0  0  0
    7.2666   11.0657   14.3246 N   0  0  0  0  0  0  0  0  0  0  0  0
   12.6662   14.7338   13.4762 O   0  0  0  0  0  0  0  0  0  0  0  0
   11.7981   16.7611   12.4087 C   0  0  0  0  0  0  0  0  0  0  0  0
    6.9087   12.2311   16.1608 N   0  0  0  0  0  0  0  0  0  0  0  0
   10.3068   14.1067   13.6262 N   0  0  0  0  0  0  0  0  0  0  0  0
   11.6675   18.4365   16.8532 O   0  0  0  0  0  0  0  0  0  0  0  0
   12.6804   18.3484   16.0012 P   0  0  0  0  0  4  0  0  0  0  0  0
   11.6226   17.4888   11.3069 O   0  0  0  0  0  0  0  0  0  0  0  0
   10.1204   15.0766   14.9243 C   0  0  0  0  0  0  0  0  0  0  0  0
   14.7034   20.7637   15.5197 O   0  0  0  0  0  0  0  0  0  0  0  0
   13.9998   21.9027   13.5024 O   0  0  0  0  0  0  0  0  0  0  0  0
   12.5300   17.1318   15.0473 O   0  0  0  0  0  0  0  0  0  0  0  0
   13.3555   20.5675   17.6487 O   0  0  0  0  0  0  0  0  0  0  0  0
   13.2036   22.9507   15.4402 O   0  0  0  0  0  0  0  0  0  0  0  0
   11.3524   15.0641   10.6526 O   0  0  0  0  0  0  0  0  0  0  0  0
   14.2656   22.0641   14.9048 P   0  0  0  0  0  5  0  0  0  0  0  0
    8.3963   11.3499   13.3946 C   0  0  0  0  0  0  0  0  0  0  0  0
   12.8479   16.0923   12.7623 C   0  0  0  0  0  0  0  0  0  0  0  0
   14.2674   18.3856   16.8069 O   0  0  0  0  0  0  0  0  0  0  0  0
   15.6344   19.9684   17.4651 O   0  0  0  0  0  0  0  0  0  0  0  0
   14.6642   20.1581   16.8025 P   0  0  0  0  0  0  0  0  0  0  0  0
    8.9118   11.8084   13.1066 N   0  0  0  0  0  0  0  0  0  0  0  0
   15.3335   22.5497   15.7579 O   0  0  0  0  0  0  0  0  0  0  0  0
   12.6307   19.1786   15.1578 O   0  0  0  0  0  1  0  0  0  0  0  0
    8.8947   13.2632   14.8942 C   0  0  0  0  0  0  0  0  0  0  0  0
   13.4318   16.9085   14.2545 C   0  0  0  0  0  0  0  0  0  0  0  0
  3  1  1  0
  6  2  2  0
  7  1  1  0
  8  3  1  0
  9  2  1  0
 10  1  1  0
 10  4  1  0
 12 11  1  0
 13  8  1  0
 14  5  2  0
 14 10  1  0
 17 12  1  0
 20  3  1  0
 21 15  1  0
 21 16  1  0
 21 19  1  0
 22  6  1  0
 23  7  1  0
 23  8  1  0
 24 12  1  0
 25 21  1  0
 26 18  1  0
 26 24  1  0
 26 25  1  0
 27  4  1  0
 27 22  2  0
 28 21  1  0
 29 12  1  0
 30  2  1  0
 30  4  2  0
 30  5  1  0
 31 17  1  0
 31 23  1  0
M  RAD  2  12   2  29   2
M  END
>  <ID>  (1) 
conformer_0

$$$$
