
     RDKit          3D

 27 29  0  0  0  0  0  0  0  0999 V2000
   12.8329   16.5239   12.8785 C   0  0  2  0  0  0  0  0  0  0  0  0
    8.6596   11.7407   13.4310 C   0  0  0  0  0  0  0  0  0  0  0  0
   11.7881   15.9490   12.2148 C   0  0  0  0  0  0  0  0  0  0  0  0
   10.1016   14.5331   14.7919 C   0  0  0  0  0  0  0  0  0  0  0  0
    7.7416   11.2416   13.9335 N   0  0  0  0  0  0  0  0  0  0  0  0
    9.3306   14.2916   15.5115 N   0  0  0  0  0  0  0  0  0  0  0  0
   10.6448   14.1261   13.6374 N   0  0  0  0  0  0  0  0  0  0  0  0
   12.8206   14.9851   13.5159 O   0  0  0  0  0  0  0  0  0  0  0  0
   11.7275   18.5684   16.7257 O   0  0  0  0  0  0  0  0  0  0  0  0
    8.1720   12.5663   15.1558 C   0  0  1  0  0  0  0  0  0  0  0  0
   12.5559   18.4190   15.9943 P   0  0  0  0  0  0  0  0  0  0  0  0
    9.3630   11.7598   12.3035 N   0  0  0  0  0  0  0  0  0  0  0  0
   11.5014   14.5995   12.4164 C   0  0  2  0  0  0  0  0  0  0  0  0
   13.5147   20.6730   17.7426 O   0  0  0  0  0  0  0  0  0  0  0  0
   11.9871   17.3454   11.3481 O   0  0  0  0  0  0  0  0  0  0  0  0
   13.7968   23.1501   15.5282 O   0  0  0  0  0  0  0  0  0  0  0  0
   14.5050   18.5548   17.0753 O   0  0  0  0  0  0  0  0  0  0  0  0
   14.4717   20.7110   15.4536 O   0  0  0  0  0  1  0  0  0  0  0  0
   14.0990   22.1630   15.0597 P   0  0  0  0  0  4  0  0  0  0  0  0
   12.6463   18.0027   15.1544 O   0  0  0  0  0  0  0  0  0  0  0  0
   13.5513   21.5689   13.6262 O   0  0  0  0  0  0  0  0  0  0  0  0
    9.5179   13.1306   14.0630 C   0  0  2  0  0  0  0  0  0  0  0  0
   14.6444   20.0623   17.0996 P   0  0  0  0  0  0  0  0  0  0  0  0
    6.8951   11.9929   15.9325 N   0  0  0  0  0  0  0  0  0  0  0  0
   15.9087   20.4234   17.2606 O   0  0  0  0  0  0  0  0  0  0  0  0
   13.4874   16.8856   14.1541 C   0  0  0  0  0  0  0  0  0  0  0  0
   12.1479   15.3399   10.7513 O   0  0  0  0  0  0  0  0  0  0  0  0
  3  1  1  0
  5  2  2  0
  6  4  2  3
  7  4  1  0
  8  1  1  0
 10  5  1  0
 11  9  1  0
 12  2  1  0
 13  3  1  0
 13  7  1  1
 13  8  1  0
 15  3  1  0
 17 11  1  0
 19 16  1  0
 19 18  1  0
 20 11  1  0
 21 19  1  0
 22  2  1  0
 22  4  1  0
 22  7  1  1
 22 10  1  0
 23 14  1  0
 23 17  1  0
 10 24  1  6
 25 19  1  0
 25 23  1  0
  1 26  1  1
 26 20  1  0
 27  3  1  0
M  RAD  2  18   2  19   2
M  END
>  <ID>  (1) 
conformer_0

$$$$
