
     RDKit          3D

 27 28  0  0  0  0  0  0  0  0999 V2000
    8.0255   12.4753   15.1754 C   0  0  0  0  0  0  0  0  0  0  0  0
   12.1083   15.8768   12.3303 C   0  0  0  0  0  0  0  0  0  0  0  0
   11.4972   14.8541   12.4813 C   0  0  0  0  0  0  0  0  0  0  0  0
    8.5011   11.5556   13.3001 C   0  0  0  0  0  0  0  0  0  0  0  0
    9.3231   14.1640   15.7742 N   0  0  0  0  0  0  0  0  0  0  0  0
   12.8167   14.9259   13.7006 O   0  0  0  0  0  0  0  0  0  0  0  0
    7.4279   11.1656   14.1154 N   0  0  0  0  0  0  0  0  0  0  0  0
   10.2348   14.6469   15.1259 C   0  0  0  0  0  0  0  0  0  0  0  0
   14.1202   22.0336   17.1622 O   0  0  0  0  0  0  0  0  0  0  0  0
   14.2144   22.0651   14.8084 P   0  0  0  0  0  4  0  0  0  0  0  0
   12.9378   19.1796   15.5140 O   0  0  0  0  0  0  0  0  0  0  0  0
   10.4990   14.1712   14.0201 N   0  0  0  0  0  0  0  0  0  0  0  0
   13.6114   23.1453   14.8998 O   0  0  0  0  0  0  0  0  0  0  0  0
   15.2599   20.9998   15.7633 O   0  0  0  0  0  0  0  0  0  0  0  0
   11.6640   17.3120   11.3629 O   0  0  0  0  0  0  0  0  0  0  0  0
   12.9937   16.7005   13.2795 C   0  0  0  0  0  0  0  0  0  0  0  0
   12.4827   18.2546   16.0580 P   0  0  0  0  0  0  0  0  0  0  0  0
   15.0269   19.3768   17.3530 O   0  0  0  0  0  0  0  0  0  0  0  0
   11.8810   14.8841   10.8108 O   0  0  0  0  0  0  0  0  0  0  0  0
    8.6981   11.1026   12.0502 N   0  0  0  0  0  0  0  0  0  0  0  0
    9.3486   13.1392   14.2525 C   0  0  0  0  0  0  0  0  0  0  0  0
    6.9170   12.0645   16.0229 N   0  0  0  0  0  0  0  0  0  0  0  0
   12.8902   19.8625   17.5385 O   0  0  0  0  0  0  0  0  0  0  0  0
   13.7906   21.3310   13.8083 O   0  0  0  0  0  1  0  0  0  0  0  0
   12.2385   17.2880   15.3048 O   0  0  0  0  0  0  0  0  0  0  0  0
    9.3014   12.0193   13.1309 N   0  0  0  0  0  0  0  0  0  0  0  0
   14.4640   20.3144   16.8545 P   0  0  0  0  0  5  0  0  0  0  0  0
  3  2  1  0
  6  3  1  0
  7  1  1  0
  7  4  2  0
  8  5  2  0
 12  3  1  0
 12  8  1  0
 13 10  1  0
 14 10  1  0
 15  2  1  0
 16  2  1  0
 17 11  1  0
 18 17  1  0
 19  3  1  0
 20  4  1  0
 21  1  1  0
 21  5  1  0
 21 12  1  0
 22  1  1  0
 24 10  1  0
 25 16  1  0
 25 17  1  0
 26  4  1  0
 26 21  1  0
 27  9  1  0
 27 14  1  0
 27 18  1  0
 27 23  1  0
M  RAD  2  10   2  24   2
M  END
>  <ID>  (1) 
conformer_0

$$$$
