
     RDKit          3D

 30 31  0  0  0  0  0  0  0  0999 V2000
   11.5829   14.3072   12.4677 C   0  0  1  0  0  0  0  0  0  0  0  0
    8.4518   11.4671   13.4092 C   0  0  0  0  0  0  0  0  0  0  0  0
   11.2977   15.8358   12.1474 C   0  0  1  0  0  0  0  0  0  0  0  0
    9.8628   14.4897   14.8656 C   0  0  0  0  0  0  0  0  0  0  0  0
    9.1702   14.3015   15.6381 N   0  0  0  0  0  0  0  0  0  0  0  0
    7.0156   11.0739   14.4977 N   0  0  0  0  0  0  0  0  0  0  0  0
   12.6280   16.0017   12.7797 C   0  0  2  0  0  0  0  0  0  0  0  0
   12.7757   14.4928   13.5665 O   0  0  0  0  0  0  0  0  0  0  0  0
   10.3527   14.0240   13.7559 N   0  0  0  0  0  0  0  0  0  0  0  0
    7.8641   12.6469   15.1992 C   0  0  0  0  0  0  0  0  0  0  0  0
   12.8714   18.1059   15.9977 P   0  0  0  0  0  5  0  0  0  0  0  0
   11.8115   18.3609   16.6902 O   0  0  0  0  0  0  0  0  0  0  0  0
   14.4584   22.4489   15.3202 P   0  0  0  0  0  4  0  0  0  0  0  0
    6.7736   12.7573   16.1912 N   0  0  0  0  0  0  0  0  0  0  0  0
   13.4381   17.1665   15.7533 O   0  0  0  0  0  0  0  0  0  0  0  0
   12.1547   14.7786   10.6736 O   0  0  0  0  0  0  0  0  0  0  0  0
   13.4946   23.2222   15.8053 O   0  0  0  0  0  0  0  0  0  0  0  0
   14.2538   19.9136   15.3389 O   0  0  0  0  0  0  0  0  0  0  0  0
   11.3701   17.1697   11.4626 O   0  0  0  0  0  0  0  0  0  0  0  0
   15.9892   22.7744   15.2487 O   0  0  0  0  0  0  0  0  0  0  0  0
   14.8171   18.5367   17.1909 O   0  0  0  0  0  0  0  0  0  0  0  0
   15.4947   21.2350   16.8007 O   0  0  0  0  0  0  0  0  0  0  0  0
   13.4051   20.2117   17.4762 O   0  0  0  0  0  0  0  0  0  0  0  0
    9.6582   11.8964   12.6429 N   0  0  0  0  0  0  0  0  0  0  0  0
   13.6219   16.4036   14.0964 C   0  0  0  0  0  0  0  0  0  0  0  0
    9.2202   13.0346   14.1382 C   0  0  1  0  0  0  0  0  0  0  0  0
   14.5327   20.1019   16.7743 P   0  0  0  0  0  0  0  0  0  0  0  0
   14.0033   21.9311   13.9057 O   0  0  0  0  0  1  0  0  0  0  0  0
   12.1046   18.1288   14.6231 O   0  0  0  0  0  0  0  0  0  0  0  0
    8.4307   11.6257   13.6026 N   0  0  0  0  0  0  0  0  0  0  0  0
  3  1  1  0
  5  4  2  3
  6  2  2  3
  7  3  1  0
  8  1  1  0
  8  7  1  0
  9  1  1  0
  9  4  1  0
 12 11  1  0
 14 10  1  0
 15 11  1  0
  1 16  1  6
 17 13  1  0
 18 11  1  0
  3 19  1  6
 20 13  1  0
 21 11  1  0
 22 13  1  0
 24  2  1  0
  7 25  1  1
 25 15  1  0
 26  4  1  0
 26  9  1  0
 26 10  1  6
 27 18  1  0
 27 22  1  0
 27 23  1  0
 28 13  1  0
 29 11  1  0
 30  2  1  0
 30 26  1  0
M  RAD  2  13   2  28   2
M  END
>  <ID>  (1) 
conformer_0

$$$$
