
     RDKit          3D

 30 31  0  0  0  0  0  0  0  0999 V2000
   11.4483   14.1940   12.4987 C   0  0  0  0  0  0  0  0  0  0  0  0
    8.5934   13.0098   14.8535 C   0  0  0  0  0  0  0  0  0  0  0  0
   11.6467   15.3711   12.1170 C   0  0  0  0  0  0  0  0  0  0  0  0
   10.0273   14.7796   14.9260 C   0  0  0  0  0  0  0  0  0  0  0  0
    8.8706   14.0952   15.6247 N   0  0  0  0  0  0  0  0  0  0  0  0
   12.7744   14.5804   13.5893 O   0  0  0  0  0  0  0  0  0  0  0  0
    7.2850   10.9136   14.1286 N   0  0  0  0  0  0  0  0  0  0  0  0
   11.6982   18.1440   16.9323 O   0  0  0  0  0  0  0  0  0  0  0  0
   13.3197   20.5644   17.6462 O   0  0  0  0  0  0  0  0  0  0  0  0
   10.3229   14.0212   13.8537 N   0  0  0  0  0  0  0  0  0  0  0  0
    6.4688   12.0072   15.8359 N   0  0  0  0  0  0  0  0  0  0  0  0
   14.3362   20.0204   16.8297 P   0  0  0  0  0  0  0  0  0  0  0  0
   12.5208   16.3431   12.6271 C   0  0  0  0  0  0  0  0  0  0  0  0
    7.3929   11.9552   14.9425 C   0  0  0  0  0  0  0  0  0  0  0  0
   14.2050   22.2958   14.6603 P   0  0  0  0  0  4  0  0  0  0  0  0
   15.4154   19.6788   17.7868 O   0  0  0  0  0  0  0  0  0  0  0  0
   14.6773   22.6394   13.3428 O   0  0  0  0  0  1  0  0  0  0  0  0
   11.4813   17.1916   11.4046 O   0  0  0  0  0  0  0  0  0  0  0  0
   14.0736   18.5128   16.3668 O   0  0  0  0  0  0  0  0  0  0  0  0
   14.4015   23.0032   15.8500 O   0  0  0  0  0  0  0  0  0  0  0  0
   11.7255   14.8011   10.6397 O   0  0  0  0  0  0  0  0  0  0  0  0
   14.6896   20.5172   15.2647 O   0  0  0  0  0  0  0  0  0  0  0  0
    8.3199   10.9797   12.9407 C   0  0  0  0  0  0  0  0  0  0  0  0
   11.8217   18.9744   14.9983 O   0  0  0  0  0  0  0  0  0  0  0  0
    8.9790   11.7512   12.8225 N   0  0  0  0  0  0  0  0  0  0  0  0
   12.5810   18.1643   16.0074 P   0  0  0  0  0  5  0  0  0  0  0  0
   13.4240   16.6374   13.8259 C   0  0  0  0  0  0  0  0  0  0  0  0
   12.9280   22.3612   14.5615 O   0  0  0  0  0  0  0  0  0  0  0  0
   12.7404   16.9664   15.1993 O   0  0  0  0  0  0  0  0  0  0  0  0
    9.3509   12.9464   13.7854 C   0  0  0  0  0  0  0  0  0  0  0  0
  3  1  1  0
  5  2  1  0
  5  4  2  0
  6  1  1  0
 10  1  1  0
 10  4  1  0
 12  9  1  0
 13  3  1  0
 14  2  2  0
 14  7  1  0
 14 11  1  0
 16 12  1  0
 17 15  1  0
 18 13  1  0
 20 15  1  0
 21  3  1  0
 22 12  1  0
 22 15  1  0
 23  7  2  0
 25 23  1  0
 26  8  1  0
 26 16  1  0
 26 19  1  0
 26 24  1  0
 27 13  1  0
 28 15  1  0
 29 26  1  0
 29 27  1  0
 30  2  1  0
 30 10  1  0
 30 25  2  0
M  RAD  2  15   2  17   2
M  END
>  <ID>  (1) 
conformer_0

$$$$
