
     RDKit          3D

 30 31  0  0  0  0  0  0  0  0999 V2000
    8.5662   13.2066   14.8732 C   0  0  0  0  0  0  0  0  0  0  0  0
   11.3717   13.9663   12.6991 C   0  0  0  0  0  0  0  0  0  0  0  0
   11.0706   15.3285   12.0058 C   0  0  0  0  0  0  0  0  0  0  0  0
   10.0489   14.6243   14.9917 C   0  0  0  0  0  0  0  0  0  0  0  0
    8.9673   14.1736   15.6105 N   0  0  0  0  0  0  0  0  0  0  0  0
    7.5058   11.3303   14.0419 N   0  0  0  0  0  0  0  0  0  0  0  0
   12.4603   14.2119   13.4915 O   0  0  0  0  0  0  0  0  0  0  0  0
    6.5389   12.2305   15.9395 N   0  0  0  0  0  0  0  0  0  0  0  0
   12.3057   16.8406   15.4457 O   0  0  0  0  0  0  0  0  0  0  0  0
   15.0186   21.8242   15.6520 P   0  0  0  0  0  5  0  0  0  0  0  0
   13.1017   20.0972   17.5629 O   0  0  0  0  0  0  0  0  0  0  0  0
   16.2619   22.2313   15.4135 O   0  0  0  0  0  0  0  0  0  0  0  0
   10.2398   13.6912   13.7275 N   0  0  0  0  0  0  0  0  0  0  0  0
   11.9685   17.7386   16.0549 P   0  0  0  0  0  4  0  0  0  0  0  0
   11.1060   17.7652   16.7862 O   0  0  0  0  0  0  0  0  0  0  0  0
    7.4463   12.2615   15.1489 C   0  0  0  0  0  0  0  0  0  0  0  0
   15.7162   20.2675   17.4186 O   0  0  0  0  0  0  0  0  0  0  0  0
   11.5891   17.3115   11.4788 O   0  0  0  0  0  0  0  0  0  0  0  0
   12.0069   16.0836   12.4165 C   0  0  0  0  0  0  0  0  0  0  0  0
   13.9182   18.2521   16.5233 O   0  0  0  0  0  0  0  0  0  0  0  0
   11.4293   14.8869   10.6462 O   0  0  0  0  0  0  0  0  0  0  0  0
   14.0550   22.4638   16.4646 O   0  0  0  0  0  0  0  0  0  0  0  0
   13.8010   21.7918   13.9053 O   0  0  0  0  0  0  0  0  0  0  0  0
   12.1646   19.1021   15.1238 O   0  0  0  0  0  1  0  0  0  0  0  0
    9.1354   11.8901   12.8338 N   0  0  0  0  0  0  0  0  0  0  0  0
    8.4316   11.2495   12.9890 C   0  0  0  0  0  0  0  0  0  0  0  0
   13.0145   16.3033   13.5874 C   0  0  0  0  0  0  0  0  0  0  0  0
   14.0010   19.6537   16.4787 P   0  0  0  0  0  0  0  0  0  0  0  0
   14.5709   20.2619   15.5424 O   0  0  0  0  0  0  0  0  0  0  0  0
    9.4615   12.9685   13.6778 C   0  0  0  0  0  0  0  0  0  0  0  0
  3  2  1  0
  5  1  1  0
  5  4  2  0
  7  2  1  0
 12 10  1  0
 13  2  1  0
 13  4  1  0
 14  9  1  0
 15 14  1  0
 16  1  2  0
 16  6  1  0
 16  8  1  0
 17 10  1  0
 19  3  1  0
 19 18  1  0
 20 14  1  0
 21  3  1  0
 22 10  1  0
 23 10  1  0
 24 14  1  0
 26  6  2  0
 26 25  1  0
 27  9  1  0
 27 19  1  0
 28 11  1  0
 28 20  1  0
 29 10  1  0
 29 28  1  0
 30  1  1  0
 30 13  1  0
 30 25  2  0
M  RAD  2  14   2  24   2
M  END
>  <ID>  (1) 
conformer_0

$$$$
