
     RDKit          3D

 29 29  0  0  0  0  0  0  0  0999 V2000
   11.7161   14.4104   12.4227 C   0  0  1  0  0  0  0  0  0  0  0  0
    7.9745   12.7000   15.2455 C   0  0  0  0  0  0  0  0  0  0  0  0
   11.7403   15.5800   12.0275 C   0  0  1  0  0  0  0  0  0  0  0  0
    9.3050   13.2644   14.2191 C   0  0  0  0  0  0  0  0  0  0  0  0
    9.2210   14.6128   15.6516 N   0  0  0  0  0  0  0  0  0  0  0  0
   12.8618   14.6915   13.5273 O   0  0  0  0  0  0  0  0  0  0  0  0
    7.3220   11.3182   14.3234 N   0  0  0  0  0  0  0  0  0  0  0  0
   10.4974   14.2388   13.8576 N   0  0  0  0  0  0  0  0  0  0  0  0
   14.2853   20.1068   16.9880 P   0  0  0  0  0  0  0  0  0  0  0  0
   13.2322   20.6615   17.6123 O   0  0  0  0  0  0  0  0  0  0  0  0
   12.7143   16.3723   12.6433 C   0  0  1  0  0  0  0  0  0  0  0  0
   14.5405   22.1250   14.8583 P   0  0  0  0  0  5  0  0  0  0  0  0
   12.0408   18.9762   15.0066 O   0  0  0  0  0  0  0  0  0  0  0  0
   13.6469   22.8895   15.6780 O   0  0  0  0  0  0  0  0  0  0  0  0
    9.9993   14.6755   14.8372 C   0  0  0  0  0  0  0  0  0  0  0  0
   14.6370   20.6614   15.5539 O   0  0  0  0  0  0  0  0  0  0  0  0
   11.8776   17.2737   11.3513 O   0  0  0  0  0  0  0  0  0  0  0  0
   14.2638   22.1270   13.4463 O   0  0  0  0  0  0  0  0  0  0  0  0
   11.8227   18.5641   16.9706 O   0  0  0  0  0  0  0  0  0  0  0  0
   11.7526   14.7775   10.6521 O   0  0  0  0  0  0  0  0  0  0  0  0
   15.9248   22.6010   15.2446 O   0  0  0  0  0  0  0  0  0  0  0  0
    7.0745   12.6652   16.1984 N   0  0  0  0  0  0  0  0  0  0  0  0
    8.4723   11.5550   13.4850 C   0  0  0  0  0  0  0  0  0  0  0  0
   15.3787   19.9342   17.8427 O   0  0  0  0  0  0  0  0  0  0  0  0
   12.4662   18.3286   15.9432 P   0  0  0  0  0  0  0  0  0  0  0  0
    9.1819   11.9804   13.1287 N   0  0  0  0  0  0  0  0  0  0  0  0
   13.3438   16.7641   14.0017 C   0  0  1  0  0  0  0  0  0  0  0  0
   14.0017   18.5547   16.4526 O   0  0  0  0  0  0  0  0  0  0  0  0
   12.4737   17.0014   15.1491 O   0  0  0  0  0  0  0  0  0  0  0  0
  3  1  1  0
  4  2  2  0
  1  6  1  1
  7  2  1  0
  8  1  1  0
  8  4  1  0
 10  9  1  0
 11  3  1  0
 14 12  1  0
 15  5  2  3
 15  8  1  0
 16 12  1  0
 11 17  1  1
 18 12  1  0
  3 20  1  6
 21 12  1  0
 22  2  1  0
 23  7  1  0
 24  9  1  0
 24 12  1  0
 25 13  1  0
 25 19  1  0
 26  4  1  0
 26 23  1  0
 27 11  1  0
 27 13  1  0
 28  9  1  0
 28 25  1  0
 27 29  1  1
M  END
>  <ID>  (1) 
conformer_0

$$$$
