
     RDKit          3D

 26 26  0  0  0  0  0  0  0  0999 V2000
    8.5972   11.8469   13.5955 C   0  0  0  0  0  0  0  0  0  0  0  0
   11.4642   14.1937   12.4066 C   0  0  0  0  0  0  0  0  0  0  0  0
   11.4638   15.5303   12.0520 C   0  0  0  0  0  0  0  0  0  0  0  0
    7.9598   11.7585   14.2692 N   0  0  0  0  0  0  0  0  0  0  0  0
    9.5444   13.2978   13.9135 C   0  0  0  0  0  0  0  0  0  0  0  0
    9.1988   14.2461   15.5720 N   0  0  0  0  0  0  0  0  0  0  0  0
   12.8015   14.7645   13.5877 O   0  0  0  0  0  0  0  0  0  0  0  0
   12.4307   16.3101   12.6964 C   0  0  0  0  0  0  0  0  0  0  0  0
   13.1860   20.4479   17.5191 O   0  0  0  0  0  0  0  0  0  0  0  0
   14.3179   19.8820   16.7988 P   0  0  0  0  0  0  0  0  0  0  0  0
   14.5696   18.4868   17.0890 O   0  0  0  0  0  0  0  0  0  0  0  0
   12.5066   17.3278   15.3160 O   0  0  0  0  0  0  0  0  0  0  0  0
   11.7106   18.3222   16.9314 O   0  0  0  0  0  0  0  0  0  0  0  0
   10.4444   13.9376   13.5662 N   0  0  0  0  0  0  0  0  0  0  0  0
   11.4963   17.3328   11.5643 O   0  0  0  0  0  0  0  0  0  0  0  0
   14.1796   22.0331   14.9923 P   0  0  0  0  0  4  0  0  0  0  0  0
   13.9231   21.7193   13.8835 O   0  0  0  0  0  1  0  0  0  0  0  0
   13.6907   22.6811   15.7683 O   0  0  0  0  0  0  0  0  0  0  0  0
    8.1045   12.8720   15.3820 C   0  0  0  0  0  0  0  0  0  0  0  0
   11.6286   14.9065   10.6392 O   0  0  0  0  0  0  0  0  0  0  0  0
    9.4187   12.0414   12.4021 N   0  0  0  0  0  0  0  0  0  0  0  0
   15.3130   20.5517   16.6836 O   0  0  0  0  0  0  0  0  0  0  0  0
   12.8694   19.4659   15.1518 O   0  0  0  0  0  1  0  0  0  0  0  0
   10.0744   14.6130   14.9964 C   0  0  0  0  0  0  0  0  0  0  0  0
   13.3025   16.6627   13.9289 C   0  0  0  0  0  0  0  0  0  0  0  0
   12.3652   18.1259   15.9218 P   0  0  0  0  0  4  0  0  0  0  0  0
  3  2  1  0
  4  1  1  0
  5  1  2  0
  8  3  1  0
  8  7  1  0
 10  9  1  0
 11 10  1  0
 14  2  1  0
 14  5  1  0
 15  8  1  0
 17 16  1  0
 18 16  1  0
 19  4  2  0
 19  6  1  0
 20  3  1  0
 21  1  1  0
 22 10  1  0
 22 16  1  0
 24  6  2  0
 24 14  1  0
 25  8  1  0
 25 12  1  0
 26 11  1  0
 26 12  1  0
 26 13  1  0
 26 23  1  0
M  RAD  4  16   2  17   2  23   2  26   2
M  END
>  <ID>  (1) 
conformer_0

$$$$
