
     RDKit          3D

 28 28  0  0  0  0  0  0  0  0999 V2000
    8.5572   11.4313   12.8656 C   0  0  0  0  0  0  0  0  0  0  0  0
   11.4656   14.4983   12.3455 C   0  0  1  0  0  0  0  0  0  0  0  0
   11.4292   15.7928   12.0227 C   0  0  0  0  0  0  0  0  0  0  0  0
   10.0000   14.3506   14.6416 C   0  0  0  0  0  0  0  0  0  0  0  0
    7.7992   11.3132   13.7229 N   0  0  0  0  0  0  0  0  0  0  0  0
    9.2029   13.9578   15.3220 N   0  0  0  0  0  0  0  0  0  0  0  0
   12.7583   14.7713   13.4945 O   0  0  0  0  0  0  0  0  0  0  0  0
   14.4869   21.8784   14.9319 P   0  0  0  0  0  5  0  0  0  0  0  0
   12.5220   16.5115   12.6994 C   0  0  0  0  0  0  0  0  0  0  0  0
   12.5156   16.7745   15.2079 O   0  0  0  0  0  0  0  0  0  0  0  0
   11.2217   17.9892   16.9069 O   0  0  0  0  0  0  0  0  0  0  0  0
   13.6534   22.6522   15.5541 O   0  0  0  0  0  0  0  0  0  0  0  0
   13.9077   18.2844   16.6175 O   0  0  0  0  0  0  0  0  0  0  0  0
    8.0167   12.3666   14.8176 C   0  0  0  0  0  0  0  0  0  0  0  0
   10.3854   14.0114   13.5452 N   0  0  0  0  0  0  0  0  0  0  0  0
   12.0744   17.9811   16.1592 P   0  0  0  0  0  0  0  0  0  0  0  0
   14.1367   21.7105   13.5390 O   0  0  0  0  0  0  0  0  0  0  0  0
   12.9549   20.3386   17.2929 O   0  0  0  0  0  0  0  0  0  0  0  0
   11.7296   17.3651   11.4151 O   0  0  0  0  0  0  0  0  0  0  0  0
   16.0726   22.0464   15.9140 O   0  0  0  0  0  0  0  0  0  0  0  0
   11.9203   15.1227   10.6239 O   0  0  0  0  0  0  0  0  0  0  0  0
   14.3097   19.8935   16.8851 P   0  0  0  0  0  0  0  0  0  0  0  0
    9.3141   11.5554   12.1564 N   0  0  0  0  0  0  0  0  0  0  0  0
   15.1020   19.6232   18.0863 O   0  0  0  0  0  0  0  0  0  0  0  0
   14.6804   20.3797   15.5972 O   0  0  0  0  0  0  0  0  0  0  0  0
   13.2680   17.0149   13.9768 C   0  0  2  0  0  0  0  0  0  0  0  0
    9.3682   13.0150   13.6487 C   0  0  0  0  0  0  0  0  0  0  0  0
   11.8671   18.7347   15.2489 O   0  0  0  0  0  0  0  0  0  0  0  0
  3  2  1  0
  5  1  2  0
  6  4  2  3
  2  7  1  1
  9  3  1  0
 12  8  1  0
 14  5  1  0
 15  2  1  0
 15  4  1  0
 16 11  1  0
 16 13  1  0
 17  8  1  0
 19  3  1  0
 20  8  1  0
 21  3  1  0
 22 13  1  0
 22 18  1  0
 23  1  1  0
 24  8  1  0
 25  8  1  0
 25 22  1  0
 26  9  1  0
 26 10  1  1
 27  1  1  0
 27 14  2  0
 27 15  1  0
 28 16  1  0
 28 26  1  0
M  END
>  <ID>  (1) 
conformer_0

$$$$
