
     RDKit          3D

 31 33  0  0  0  0  0  0  0  0999 V2000
    8.7565   12.9452   14.9699 C   0  0  0  0  0  0  0  0  0  0  0  0
   11.5864   14.4353   12.8707 C   0  0  0  0  0  0  0  0  0  0  0  0
   11.1617   15.3041   11.7614 C   0  0  0  0  0  0  0  0  0  0  0  0
   10.1382   14.7055   15.0029 C   0  0  0  0  0  0  0  0  0  0  0  0
    7.4195   11.0210   14.1334 N   0  0  0  0  0  0  0  0  0  0  0  0
    9.1103   14.1397   15.7423 N   0  0  0  0  0  0  0  0  0  0  0  0
   12.6419   15.0806   13.6543 O   0  0  0  0  0  0  0  0  0  0  0  0
   10.4514   14.0118   13.8446 N   0  0  0  0  0  0  0  0  0  0  0  0
   12.9673   16.2867   12.9855 C   0  0  0  0  0  0  0  0  0  0  0  0
   14.4531   22.3366   15.0262 P   0  0  0  0  0  4  0  0  0  0  0  0
   12.6689   18.3116   16.1760 P   0  0  0  0  0  5  0  0  0  0  0  0
   12.0856   14.8799   10.6654 O   0  0  0  0  0  0  0  0  0  0  0  0
   11.6805   17.6160   11.2851 O   0  0  0  0  0  0  0  0  0  0  0  0
   13.2124   17.3195   15.9502 O   0  0  0  0  0  0  0  0  0  0  0  0
   14.8929   18.9924   17.5567 O   0  0  0  0  0  0  0  0  0  0  0  0
   13.4765   21.7549   13.7072 O   0  0  0  0  0  1  0  0  0  0  0  0
    7.4944   12.0842   15.0961 C   0  0  0  0  0  0  0  0  0  0  0  0
    6.6344   12.0516   15.9644 N   0  0  0  0  0  0  0  0  0  0  0  0
    9.3403   11.9425   12.8874 N   0  0  0  0  0  0  0  0  0  0  0  0
   13.1502   20.4578   17.4535 O   0  0  0  0  0  0  0  0  0  0  0  0
   13.6873   23.0285   16.0595 O   0  0  0  0  0  0  0  0  0  0  0  0
   11.6089   18.2212   17.0115 O   0  0  0  0  0  0  0  0  0  0  0  0
   15.8189   21.3282   16.9251 O   0  0  0  0  0  0  0  0  0  0  0  0
   15.7011   22.6016   14.6180 O   0  0  0  0  0  0  0  0  0  0  0  0
    8.3507   11.0726   13.0552 C   0  0  0  0  0  0  0  0  0  0  0  0
   14.6498   20.2688   16.8486 P   0  0  0  0  0  0  0  0  0  0  0  0
   13.5210   16.9202   14.3480 C   0  0  0  0  0  0  0  0  0  0  0  0
   14.1411   19.9562   15.5544 O   0  0  0  0  0  0  0  0  0  0  0  0
   11.8949   18.5301   15.1843 O   0  0  0  0  0  0  0  0  0  0  0  0
    9.4935   12.9487   13.8070 C   0  0  0  0  0  0  0  0  0  0  0  0
   11.9739   16.7919   12.1638 C   0  0  0  0  0  0  0  0  0  0  0  0
  3  2  1  0
  6  1  1  0
  6  4  2  0
  7  2  1  0
  8  2  1  0
  8  4  1  0
  9  7  1  0
 12  3  1  0
 14 11  1  0
 15 11  1  0
 16 10  1  0
 17  1  2  0
 17  5  1  0
 18 17  1  0
 21 10  1  0
 22 11  1  0
 23 10  1  0
 24 10  1  0
 25  5  2  0
 25 19  1  0
 26 20  1  0
 26 23  1  0
 27  9  1  0
 27 14  1  0
 28 11  1  0
 28 26  1  0
 29 11  1  0
 30  1  1  0
 30  8  1  0
 30 19  2  0
 31  3  1  0
 31  9  1  0
 31 13  1  0
M  RAD  2  10   2  16   2
M  END
>  <ID>  (1) 
conformer_0

$$$$
