
     RDKit          3D

 28 27  0  0  0  0  0  0  0  0999 V2000
    8.5210   11.5123   13.2132 C   0  0  0  0  0  0  0  0  0  0  0  0
   12.3811   16.4768   12.9245 C   0  0  0  0  0  0  0  0  0  0  0  0
   11.6680   14.4326   12.7487 C   0  0  1  0  0  0  0  0  0  0  0  0
    9.8813   14.4872   14.9287 C   0  0  0  0  0  0  0  0  0  0  0  0
    9.0113   14.2035   15.6263 N   0  0  0  0  0  0  0  0  0  0  0  0
    7.5830   11.2062   13.9569 N   0  0  0  0  0  0  0  0  0  0  0  0
   12.7148   14.6138   13.7247 O   0  0  0  0  0  0  0  0  0  0  0  0
   10.4143   14.0891   13.9741 N   0  0  0  0  0  0  0  0  0  0  0  0
   14.5147   22.3149   15.1539 P   0  0  0  0  0  4  0  0  0  0  0  0
   12.5066   17.1072   15.2395 O   0  0  0  0  0  0  0  0  0  0  0  0
   13.2012   16.6717   13.9425 C   0  0  0  0  0  0  0  0  0  0  0  0
    7.8688   12.4899   14.9611 C   0  0  0  0  0  0  0  0  0  0  0  0
   12.6659   18.3004   16.0466 P   0  0  2  0  0  4  0  0  0  0  0  0
   15.2528   19.3548   17.4400 O   0  0  0  0  0  0  0  0  0  0  0  0
   14.3457   22.1335   13.6776 O   0  0  0  0  0  1  0  0  0  0  0  0
   13.2054   20.3283   17.3853 O   0  0  0  0  0  0  0  0  0  0  0  0
    8.9940   11.3392   12.5136 N   0  0  0  0  0  0  0  0  0  0  0  0
   11.0666   17.4853   11.8781 O   0  0  0  0  0  0  0  0  0  0  0  0
   13.4701   22.9797   15.8970 O   0  0  0  0  0  0  0  0  0  0  0  0
   11.5538   15.0901   10.8298 O   0  0  0  0  0  0  0  0  0  0  0  0
   15.8154   22.9502   15.8163 O   0  0  0  0  0  0  0  0  0  0  0  0
    6.4576   12.0309   15.6615 N   0  0  0  0  0  0  0  0  0  0  0  0
    9.2455   13.0639   14.2060 C   0  0  0  0  0  0  0  0  0  0  0  0
   11.9501   18.3206   16.9731 O   0  0  0  0  0  0  0  0  0  0  0  0
   13.0519   19.0924   15.3812 O   0  0  0  0  0  1  0  0  0  0  0  0
   14.9722   20.8658   15.7242 O   0  0  0  0  0  0  0  0  0  0  0  0
   11.3733   15.7038   12.0957 C   0  0  0  0  0  0  0  0  0  0  0  0
   14.6271   20.0617   16.7264 P   0  0  0  0  0  0  0  0  0  0  0  0
  5  4  2  3
  6  1  2  3
  3  7  1  1
  8  3  1  0
  8  4  1  0
 11  2  1  0
 11 10  1  0
 12  6  1  0
 13 10  1  0
 14 13  1  0
 15  9  1  0
 17  1  1  0
 19  9  1  0
 21  9  1  0
 22 12  2  3
 23  8  1  0
 23 12  1  0
 13 24  1  1
 25 13  1  0
 26  9  1  0
 27  2  1  0
 27  3  1  0
 27 18  1  0
 27 20  1  0
 28 14  1  0
 28 16  1  0
 28 26  1  0
M  RAD  4   9   2  13   2  15   2  25   2
M  END
>  <ID>  (1) 
conformer_0

$$$$
