
     RDKit          3D

 29 29  0  0  0  0  0  0  0  0999 V2000
    8.5007   11.4563   13.0470 C   0  0  0  0  0  0  0  0  0  0  0  0
   11.3809   14.4492   12.4147 C   0  0  1  0  0  0  0  0  0  0  0  0
   11.6219   15.6706   12.0775 C   0  0  0  0  0  0  0  0  0  0  0  0
    9.7881   14.3461   14.5581 C   0  0  0  0  0  0  0  0  0  0  0  0
    7.5237   10.9657   13.8587 N   0  0  0  0  0  0  0  0  0  0  0  0
   12.4435   14.4464   13.6227 O   0  0  0  0  0  0  0  0  0  0  0  0
   10.2296   14.0053   13.6491 N   0  0  0  0  0  0  0  0  0  0  0  0
    8.9037   13.8178   15.3218 N   0  0  0  0  0  0  0  0  0  0  0  0
    6.4023   11.9404   15.7317 N   0  0  0  0  0  0  0  0  0  0  0  0
   14.5095   22.6305   14.9090 P   0  0  0  0  0  4  0  0  0  0  0  0
   15.1139   19.5590   17.8674 O   0  0  0  0  0  0  0  0  0  0  0  0
    7.6842   12.1851   14.7993 C   0  0  0  0  0  0  0  0  0  0  0  0
   12.7702   16.0753   12.9309 C   0  0  2  0  0  0  0  0  0  0  0  0
   13.0503   20.4779   17.5793 O   0  0  0  0  0  0  0  0  0  0  0  0
   12.5423   16.9369   15.3562 O   0  0  0  0  0  0  0  0  0  0  0  0
   14.2326   20.1607   16.7532 P   0  0  0  0  0  0  0  0  0  0  0  0
   14.5087   20.8546   15.5910 O   0  0  0  0  0  0  0  0  0  0  0  0
   13.5426   23.3869   15.7452 O   0  0  0  0  0  0  0  0  0  0  0  0
   11.8267   18.2971   16.9006 O   0  0  0  0  0  0  0  0  0  0  0  0
    9.3374   11.5314   12.2547 N   0  0  0  0  0  0  0  0  0  0  0  0
   14.2925   22.2654   13.5724 O   0  0  0  0  0  1  0  0  0  0  0  0
   15.9846   23.0066   15.1378 O   0  0  0  0  0  0  0  0  0  0  0  0
   12.2438   17.0345   11.4217 O   0  0  0  0  0  0  0  0  0  0  0  0
   12.2373   19.1888   14.9450 O   0  0  0  0  0  0  0  0  0  0  0  0
    9.1010   12.9099   13.8718 C   0  0  0  0  0  0  0  0  0  0  0  0
   12.5964   18.1568   16.1532 P   0  0  0  0  0  5  0  0  0  0  0  0
   13.3243   16.5317   14.1253 C   0  0  0  0  0  0  0  0  0  0  0  0
   12.1228   15.0111   10.6784 O   0  0  0  0  0  0  0  0  0  0  0  0
   14.1198   18.4190   16.4186 O   0  0  0  0  0  0  0  0  0  0  0  0
  3  2  1  0
  5  1  1  0
  6  2  1  0
  2  7  1  1
  7  4  1  0
  8  4  2  3
 12  5  2  3
 12  9  1  0
 13  3  1  0
 13  6  1  0
 16 11  1  0
 16 14  1  0
 17 10  1  0
 17 16  1  0
 18 10  1  0
 20  1  2  3
 21 10  1  0
 22 10  1  0
 23  3  1  0
 25  1  1  0
 25  7  1  0
 26 11  1  0
 26 15  1  0
 26 19  1  0
 26 24  1  0
 13 27  1  1
 27 15  1  0
 28  3  1  0
 29 26  1  0
M  RAD  2  10   2  21   2
M  END
>  <ID>  (1) 
conformer_0

$$$$
