
     RDKit          3D

 26 26  0  0  0  0  0  0  0  0999 V2000
   11.4331   14.5561   12.5743 C   0  0  1  0  0  0  0  0  0  0  0  0
    9.3275   13.1289   14.3932 C   0  0  0  0  0  0  0  0  0  0  0  0
   11.4507   16.0553   12.1720 C   0  0  0  0  0  0  0  0  0  0  0  0
    9.9748   14.6392   14.9826 C   0  0  0  0  0  0  0  0  0  0  0  0
    9.1634   14.3371   15.7347 N   0  0  0  0  0  0  0  0  0  0  0  0
    7.6563   11.2152   14.0548 N   0  0  0  0  0  0  0  0  0  0  0  0
    9.1674   11.5315   12.4974 N   0  0  0  0  0  0  0  0  0  0  0  0
   12.6384   16.3787   12.9646 C   0  0  2  0  0  0  0  0  0  0  0  0
   12.7137   14.8004   13.6555 O   0  0  0  0  0  0  0  0  0  0  0  0
   11.8505   18.4953   16.7695 O   0  0  0  0  0  0  0  0  0  0  0  0
   10.4433   14.0999   13.9608 N   0  0  0  0  0  0  0  0  0  0  0  0
   13.4105   19.0588   16.2648 P   0  0  0  0  0  5  0  0  0  0  0  0
    7.9592   12.4924   15.2601 C   0  0  0  0  0  0  0  0  0  0  0  0
   14.9044   18.8727   17.2030 O   0  0  0  0  0  0  0  0  0  0  0  0
   14.6724   20.6164   15.6102 O   0  0  0  0  0  0  0  0  0  0  0  0
   11.8730   17.6715   11.4076 O   0  0  0  0  0  0  0  0  0  0  0  0
   14.4360   21.8914   15.4104 P   0  0  0  0  0  5  0  0  0  0  0  0
   13.0214   17.4737   15.4799 O   0  0  0  0  0  0  0  0  0  0  0  0
   13.3308   20.3729   17.5165 O   0  0  0  0  0  0  0  0  0  0  0  0
   13.5538   23.0963   15.8630 O   0  0  0  0  0  0  0  0  0  0  0  0
   14.3886   22.1605   13.8757 O   0  0  0  0  0  0  0  0  0  0  0  0
   15.8862   22.3549   15.9777 O   0  0  0  0  0  0  0  0  0  0  0  0
   13.6994   16.9290   14.2951 C   0  0  0  0  0  0  0  0  0  0  0  0
    8.6455   11.6475   13.3736 C   0  0  0  0  0  0  0  0  0  0  0  0
   11.4378   15.5337   10.8797 O   0  0  0  0  0  0  0  0  0  0  0  0
   12.7969   19.5942   14.9912 O   0  0  0  0  0  0  0  0  0  0  0  0
  3  1  1  0
  5  4  2  3
  8  3  1  0
  9  1  1  0
  9  8  1  0
  1 11  1  1
 11  2  1  0
 11  4  1  0
 12 10  1  0
 13  2  1  0
 13  6  1  0
 14 12  1  0
 16  3  1  0
 17 14  1  0
 17 15  1  0
 18 12  1  0
 19 12  1  0
 20 17  1  0
 21 17  1  0
 22 17  1  0
  8 23  1  1
 23 18  1  0
 24  6  2  3
 24  7  1  0
 25  3  1  0
 26 12  1  0
M  END
>  <ID>  (1) 
conformer_0

$$$$
