
     RDKit          3D

 31 33  0  0  0  0  0  0  0  0999 V2000
    8.3589   10.8660   12.7484 C   0  0  0  0  0  0  0  0  0  0  0  0
   12.9836   15.9885   12.8920 C   0  0  0  0  0  0  0  0  0  0  0  0
   11.1690   15.2312   11.9885 C   0  0  0  0  0  0  0  0  0  0  0  0
   10.1051   14.4546   14.7339 C   0  0  0  0  0  0  0  0  0  0  0  0
    7.4466   10.8608   13.9399 N   0  0  0  0  0  0  0  0  0  0  0  0
    8.8952   13.7047   15.3379 N   0  0  0  0  0  0  0  0  0  0  0  0
   12.6664   14.6243   13.6870 O   0  0  0  0  0  0  0  0  0  0  0  0
   10.3725   13.8668   13.7826 N   0  0  0  0  0  0  0  0  0  0  0  0
   11.6446   18.3967   16.8254 O   0  0  0  0  0  0  0  0  0  0  0  0
    6.4979   11.8705   15.7329 N   0  0  0  0  0  0  0  0  0  0  0  0
   12.5497   17.1179   15.1350 O   0  0  0  0  0  0  0  0  0  0  0  0
    7.4499   11.8704   14.8893 C   0  0  0  0  0  0  0  0  0  0  0  0
   13.2606   16.8499   14.2151 C   0  0  0  0  0  0  0  0  0  0  0  0
   15.1811   19.8258   18.1261 O   0  0  0  0  0  1  0  0  0  0  0  0
   14.2410   21.8321   14.8566 P   0  0  0  0  0  4  0  0  0  0  0  0
   14.1844   20.7918   15.6092 O   0  0  0  0  0  0  0  0  0  0  0  0
   11.4913   17.4274   11.4255 O   0  0  0  0  0  0  0  0  0  0  0  0
   13.2601   20.7439   17.8741 O   0  0  0  0  0  0  0  0  0  0  0  0
   12.4492   18.3970   15.8834 P   0  0  0  0  0  4  0  0  0  0  0  0
   13.8641   22.9170   16.2975 O   0  0  0  0  0  0  0  0  0  0  0  0
   11.7305   14.9705   10.8108 O   0  0  0  0  0  0  0  0  0  0  0  0
    9.2415   11.7803   12.6481 N   0  0  0  0  0  0  0  0  0  0  0  0
   14.2741   20.2693   17.2059 P   0  0  0  0  0  4  0  0  0  0  0  0
   13.7887   21.9148   13.5539 O   0  0  0  0  0  1  0  0  0  0  0  0
   12.1087   19.1946   14.7657 O   0  0  0  0  0  1  0  0  0  0  0  0
    8.7662   12.8469   14.6531 C   0  0  0  0  0  0  0  0  0  0  0  0
   15.7884   22.1082   15.1981 O   0  0  0  0  0  0  0  0  0  0  0  0
   11.5777   14.1008   12.8479 C   0  0  0  0  0  0  0  0  0  0  0  0
   14.0334   18.7063   16.4685 O   0  0  0  0  0  0  0  0  0  0  0  0
    9.4276   12.6125   13.5142 C   0  0  0  0  0  0  0  0  0  0  0  0
   11.8881   16.6658   12.5007 C   0  0  0  0  0  0  0  0  0  0  0  0
  5  1  2  0
  6  4  2  0
  7  2  1  0
  8  4  1  0
 12  5  1  0
 12 10  1  0
 13  2  1  0
 13 11  1  0
 16 15  1  0
 19  9  1  0
 19 11  1  0
 20 15  1  0
 21  3  1  0
 22  1  1  0
 23 14  1  0
 23 16  1  0
 23 18  1  0
 24 15  1  0
 25 19  1  0
 26  6  1  0
 26 12  2  0
 27 15  1  0
 28  3  1  0
 28  7  1  0
 28  8  1  0
 29 19  1  0
 29 23  1  0
 30  8  1  0
 30 22  2  0
 30 26  1  0
 31  2  1  0
 31  3  1  0
 31 17  1  0
M  RAD  6  14   2  15   2  19   2  23   2  24   2  25   2
M  END
>  <ID>  (1) 
conformer_0

$$$$
