
     RDKit          3D

 27 27  0  0  0  0  0  0  0  0999 V2000
   11.1309   15.5469   12.0889 C   0  0  1  0  0  0  0  0  0  0  0  0
    9.2108   13.0850   14.1780 C   0  0  0  0  0  0  0  0  0  0  0  0
   12.2710   16.1947   12.7167 C   0  0  2  0  0  0  0  0  0  0  0  0
    9.8369   14.2916   14.8227 C   0  0  0  0  0  0  0  0  0  0  0  0
    7.5001   11.2321   14.0593 N   0  0  0  0  0  0  0  0  0  0  0  0
    6.4824   11.9491   15.9415 N   0  0  0  0  0  0  0  0  0  0  0  0
   12.6019   14.4623   13.3847 O   0  0  0  0  0  0  0  0  0  0  0  0
    9.0182   13.9500   15.5580 N   0  0  0  0  0  0  0  0  0  0  0  0
   11.4934   18.3722   16.7172 O   0  0  0  0  0  0  0  0  0  0  0  0
   13.2417   16.2352   13.8021 C   0  0  0  0  0  0  0  0  0  0  0  0
   14.2447   19.6821   16.7005 P   0  0  0  0  0  0  0  0  0  0  0  0
   10.2681   13.8005   13.6641 N   0  0  0  0  0  0  0  0  0  0  0  0
   14.3410   22.2028   15.1697 P   0  0  2  0  0  4  0  0  0  0  0  0
   13.1666   20.3979   17.6043 O   0  0  0  0  0  0  0  0  0  0  0  0
   11.5398   17.3490   11.5461 O   0  0  0  0  0  0  0  0  0  0  0  0
   14.9295   20.7410   16.0184 O   0  0  0  0  0  0  0  0  0  0  0  0
    7.7920   12.3737   15.1433 C   0  0  0  0  0  0  0  0  0  0  0  0
   12.6279   17.0613   15.4807 O   0  0  0  0  0  0  0  0  0  0  0  0
   13.9747   23.1577   15.9091 O   0  0  0  0  0  0  0  0  0  0  0  0
   14.5398   18.4500   17.0646 O   0  0  0  0  0  0  0  0  0  0  0  0
   11.2089   15.1015   10.6983 O   0  0  0  0  0  0  0  0  0  0  0  0
   13.9335   21.8921   14.0251 O   0  0  0  0  0  1  0  0  0  0  0  0
    8.4396   11.4636   13.2279 C   0  0  0  0  0  0  0  0  0  0  0  0
   12.8512   19.2794   15.0648 O   0  0  0  0  0  1  0  0  0  0  0  0
    9.2065   11.8840   12.8470 N   0  0  0  0  0  0  0  0  0  0  0  0
   11.3343   14.0986   12.4226 C   0  0  1  0  0  0  0  0  0  0  0  0
   12.4160   17.9881   16.0277 P   0  0  2  0  0  4  0  0  0  0  0  0
  3  1  1  0
  4  2  1  0
  8  4  2  3
 10  3  1  0
 12  2  1  0
 12  4  1  0
 14 11  1  0
  3 15  1  1
 16 11  1  0
 16 13  1  0
 17  5  2  3
 17  6  1  0
 18 10  1  0
 13 19  1  1
 20 11  1  0
  1 21  1  6
 22 13  1  0
 23  5  1  0
 25  2  2  3
 25 23  1  0
 26  1  1  0
 26  7  1  1
 26 12  1  0
 27  9  1  1
 27 18  1  0
 27 20  1  0
 27 24  1  0
M  RAD  4  13   2  22   2  24   2  27   2
M  END
>  <ID>  (1) 
conformer_0

$$$$
