
     RDKit          3D

 29 29  0  0  0  0  0  0  0  0999 V2000
   11.5767   14.4031   12.5940 C   0  0  1  0  0  0  0  0  0  0  0  0
    9.2846   12.9910   14.2094 C   0  0  0  0  0  0  0  0  0  0  0  0
   11.1728   15.4869   11.9491 C   0  0  1  0  0  0  0  0  0  0  0  0
    9.9158   14.3668   14.8066 C   0  0  0  0  0  0  0  0  0  0  0  0
    7.4734   10.9770   13.9812 N   0  0  0  0  0  0  0  0  0  0  0  0
    9.1212   14.2215   15.6414 N   0  0  0  0  0  0  0  0  0  0  0  0
   12.6819   14.7271   13.4710 O   0  0  0  0  0  0  0  0  0  0  0  0
   10.4077   13.9745   13.8780 N   0  0  0  0  0  0  0  0  0  0  0  0
    6.6954   11.8998   15.8233 N   0  0  0  0  0  0  0  0  0  0  0  0
   11.7137   17.9353   16.9239 O   0  0  0  0  0  0  0  0  0  0  0  0
   14.5170   22.2767   15.0142 P   0  0  0  0  0  5  0  0  0  0  0  0
   13.1593   20.3726   17.4770 O   0  0  0  0  0  0  0  0  0  0  0  0
   12.4064   17.1962   15.0708 O   0  0  0  0  0  0  0  0  0  0  0  0
   11.7319   17.3638   11.3914 O   0  0  0  0  0  0  0  0  0  0  0  0
   13.9571   22.1692   13.5523 O   0  0  0  0  0  0  0  0  0  0  0  0
    7.9919   12.3642   15.0941 C   0  0  0  0  0  0  0  0  0  0  0  0
   12.2081   16.4362   12.5562 C   0  0  1  0  0  0  0  0  0  0  0  0
   12.4716   18.3014   15.9892 P   0  0  2  0  0  4  0  0  0  0  0  0
   16.1055   22.3413   15.4203 O   0  0  0  0  0  0  0  0  0  0  0  0
   11.5321   14.5846   10.6723 O   0  0  0  0  0  0  0  0  0  0  0  0
   14.5329   20.6934   15.4805 O   0  0  0  0  0  0  0  0  0  0  0  0
   13.7242   22.9278   16.0549 O   0  0  0  0  0  0  0  0  0  0  0  0
    9.1687   11.8678   12.9081 N   0  0  0  0  0  0  0  0  0  0  0  0
    8.5679   11.3853   13.1011 C   0  0  0  0  0  0  0  0  0  0  0  0
   15.4557   20.4737   17.8721 O   0  0  0  0  0  0  0  0  0  0  0  0
   14.4868   20.2885   16.8760 P   0  0  0  0  0  0  0  0  0  0  0  0
   14.4668   18.6417   16.5706 O   0  0  0  0  0  0  0  0  0  0  0  0
   13.1900   16.7791   13.7822 C   0  0  0  0  0  0  0  0  0  0  0  0
   12.3136   19.2164   15.1119 O   0  0  0  0  0  1  0  0  0  0  0  0
  3  1  1  0
  6  4  2  3
  1  7  1  1
  8  1  1  0
  8  2  1  0
  8  4  1  0
 15 11  1  0
 16  2  2  0
 16  5  1  0
 16  9  1  0
 17  3  1  0
 17 14  1  1
 18 10  1  1
 18 13  1  0
 19 11  1  0
  3 20  1  6
 21 11  1  0
 22 11  1  0
 23  2  1  0
 24  5  2  0
 24 23  1  0
 25 11  1  0
 26 12  1  0
 26 25  1  0
 27 18  1  0
 27 26  1  0
 28 13  1  0
 28 17  1  0
 29 18  1  0
M  RAD  2  18   2  29   2
M  END
>  <ID>  (1) 
conformer_0

$$$$
