
     RDKit          3D

 28 28  0  0  0  0  0  0  0  0999 V2000
   11.4906   14.6187   12.4872 C   0  0  1  0  0  0  0  0  0  0  0  0
    8.4719   11.2968   12.9798 C   0  0  0  0  0  0  0  0  0  0  0  0
   11.7130   15.7946   12.0696 C   0  0  1  0  0  0  0  0  0  0  0  0
    7.9897   12.3613   14.7794 C   0  0  0  0  0  0  0  0  0  0  0  0
    7.3884   10.9386   13.9345 N   0  0  0  0  0  0  0  0  0  0  0  0
   12.7832   14.8406   13.4265 O   0  0  0  0  0  0  0  0  0  0  0  0
   10.4809   14.2760   13.7864 N   0  0  0  0  0  0  0  0  0  0  0  0
    9.1627   14.3197   15.5305 N   0  0  0  0  0  0  0  0  0  0  0  0
   14.4012   20.1708   16.9957 P   0  0  0  0  0  0  0  0  0  0  0  0
   12.7377   16.6850   12.7034 C   0  0  1  0  0  0  0  0  0  0  0  0
   13.2985   20.5353   17.5907 O   0  0  0  0  0  0  0  0  0  0  0  0
   10.0562   14.7427   14.8786 C   0  0  0  0  0  0  0  0  0  0  0  0
   14.3874   22.0030   14.7112 P   0  0  0  0  0  4  0  0  0  0  0  0
   14.2148   21.7761   13.4332 O   0  0  0  0  0  1  0  0  0  0  0  0
   12.8033   17.2906   15.3874 O   0  0  0  0  0  0  0  0  0  0  0  0
   15.4401   19.6894   17.7643 O   0  0  0  0  0  0  0  0  0  0  0  0
   12.1493   17.4885   11.2656 O   0  0  0  0  0  0  0  0  0  0  0  0
   11.8528   18.1669   16.9739 O   0  0  0  0  0  0  0  0  0  0  0  0
   13.5509   22.8015   15.4487 O   0  0  0  0  0  0  0  0  0  0  0  0
    6.7632   12.0083   15.7813 N   0  0  0  0  0  0  0  0  0  0  0  0
   11.4010   15.0907   10.6968 O   0  0  0  0  0  0  0  0  0  0  0  0
   15.9377   22.1302   15.1750 O   0  0  0  0  0  0  0  0  0  0  0  0
    9.2579   13.1653   14.1056 C   0  0  0  0  0  0  0  0  0  0  0  0
    9.0572   11.8356   12.7224 N   0  0  0  0  0  0  0  0  0  0  0  0
   12.5255   18.2785   16.0555 P   0  0  2  0  0  4  0  0  0  0  0  0
   14.2903   19.5945   15.6722 O   0  0  0  0  0  1  0  0  0  0  0  0
   13.4971   17.0539   14.0290 C   0  0  2  0  0  0  0  0  0  0  0  0
   11.8830   19.0714   15.0555 O   0  0  0  0  0  0  0  0  0  0  0  0
  3  1  1  0
  5  2  1  0
  5  4  1  0
  1  6  1  1
  7  1  1  0
 10  3  1  0
 11  9  1  0
 12  7  1  0
 12  8  2  0
 13  9  1  0
 14 13  1  0
 16  9  1  0
 10 17  1  1
 19 13  1  0
 20  4  2  3
  3 21  1  6
 22 13  1  0
 23  4  1  0
 23  7  1  0
 23  8  1  0
 24  2  2  3
 25 15  1  0
 25 16  1  0
 25 18  1  1
 26 25  1  0
 27 10  1  0
 27 15  1  0
 27 28  1  6
M  RAD  4  13   2  14   2  25   2  26   2
M  END
>  <ID>  (1) 
conformer_0

$$$$
