
     RDKit          3D

 29 29  0  0  0  0  0  0  0  0999 V2000
    9.2160   12.9815   14.1612 C   0  0  0  0  0  0  0  0  0  0  0  0
   11.5435   14.2548   12.5521 C   0  0  1  0  0  0  0  0  0  0  0  0
   11.4319   15.5197   12.0568 C   0  0  1  0  0  0  0  0  0  0  0  0
    9.9110   14.2481   14.7057 C   0  0  0  0  0  0  0  0  0  0  0  0
    7.6674   11.3957   14.1391 N   0  0  0  0  0  0  0  0  0  0  0  0
   11.6469   18.3146   16.8086 O   0  0  0  0  0  0  0  0  0  0  0  0
    9.0925   13.9699   15.4776 N   0  0  0  0  0  0  0  0  0  0  0  0
   12.7737   14.8090   13.6066 O   0  0  0  0  0  0  0  0  0  0  0  0
   10.3842   13.8709   13.7556 N   0  0  0  0  0  0  0  0  0  0  0  0
   12.4397   16.9608   15.0475 O   0  0  0  0  0  0  0  0  0  0  0  0
   13.2788   20.4918   17.5236 O   0  0  0  0  0  0  0  0  0  0  0  0
   14.3062   21.9346   14.9579 P   0  0  0  0  0  4  0  0  0  0  0  0
   15.5306   19.8319   17.5238 O   0  0  0  0  0  1  0  0  0  0  0  0
   13.5118   22.8593   15.8790 O   0  0  0  0  0  0  0  0  0  0  0  0
   11.4771   17.2781   11.2662 O   0  0  0  0  0  0  0  0  0  0  0  0
    7.7085   12.4843   15.3238 C   0  0  0  0  0  0  0  0  0  0  0  0
   12.5981   19.2343   15.0025 O   0  0  0  0  0  1  0  0  0  0  0  0
   12.5244   18.0378   15.9780 P   0  0  1  0  0  4  0  0  0  0  0  0
   12.2367   16.4267   12.4241 C   0  0  1  0  0  0  0  0  0  0  0  0
   11.3415   14.8872   10.6702 O   0  0  0  0  0  0  0  0  0  0  0  0
    9.1950   11.4863   12.5367 N   0  0  0  0  0  0  0  0  0  0  0  0
   13.4624   21.6172   13.5458 O   0  0  0  0  0  1  0  0  0  0  0  0
    6.7342   12.4523   16.2256 N   0  0  0  0  0  0  0  0  0  0  0  0
    8.4006   11.4415   13.4497 C   0  0  0  0  0  0  0  0  0  0  0  0
   14.7315   20.6120   15.5519 O   0  0  0  0  0  0  0  0  0  0  0  0
   15.4178   22.4470   15.3315 O   0  0  0  0  0  0  0  0  0  0  0  0
   14.4697   20.0840   16.8672 P   0  0  2  0  0  4  0  0  0  0  0  0
   13.1093   16.4576   13.7870 C   0  0  2  0  0  0  0  0  0  0  0  0
   14.0228   18.1341   16.6509 O   0  0  0  0  0  0  0  0  0  0  0  0
  3  2  1  0
  4  1  2  0
  7  4  1  0
  8  2  1  0
  2  9  1  1
  9  4  1  0
 14 12  1  0
 16  5  2  3
 18  6  1  1
 18 10  1  0
 18 17  1  0
 19  3  1  0
 19 15  1  1
  3 20  1  6
 22 12  1  0
 23 16  1  0
 24  1  2  0
 24  5  1  0
 24 21  1  0
 25 12  1  0
 26 12  1  0
 27 11  1  1
 27 13  1  0
 27 25  1  0
 28  8  1  0
 28 10  1  1
 28 19  1  0
 29 18  1  0
 29 27  1  0
M  RAD  6  12   2  13   2  17   2  18   2  22   2  27   2
M  END
>  <ID>  (1) 
conformer_0

$$$$
