
     RDKit          3D

 27 29  0  0  0  0  0  0  0  0999 V2000
   11.3676   15.6058   12.1187 C   0  0  0  0  0  0  0  0  0  0  0  0
    8.4144   11.5809   13.6070 C   0  0  0  0  0  0  0  0  0  0  0  0
   12.0908   16.7256   12.5177 C   0  0  0  0  0  0  0  0  0  0  0  0
    9.8326   14.4929   14.8921 C   0  0  0  0  0  0  0  0  0  0  0  0
    8.9426   14.0460   15.5767 N   0  0  0  0  0  0  0  0  0  0  0  0
    7.4343   11.3821   14.3399 N   0  0  0  0  0  0  0  0  0  0  0  0
   12.6165   14.9177   13.7180 O   0  0  0  0  0  0  0  0  0  0  0  0
   12.7537   18.2824   16.0891 P   0  0  0  0  0  4  0  0  0  0  0  0
   13.3850   20.5940   17.8414 O   0  0  0  0  0  0  0  0  0  0  0  0
    8.6969   11.0825   12.8125 N   0  0  0  0  0  0  0  0  0  0  0  0
   11.6075   18.5074   16.7525 O   0  0  0  0  0  0  0  0  0  0  0  0
   14.3678   22.1389   15.1464 P   0  0  0  0  0  4  0  0  0  0  0  0
   10.3392   13.9796   13.8415 N   0  0  0  0  0  0  0  0  0  0  0  0
   15.0177   20.4781   15.9875 O   0  0  0  0  0  0  0  0  0  0  0  0
   12.7993   17.2839   15.3733 O   0  0  0  0  0  0  0  0  0  0  0  0
   11.5894   14.3330   12.5795 C   0  0  0  0  0  0  0  0  0  0  0  0
   14.6253   18.5047   17.3832 O   0  0  0  0  0  0  0  0  0  0  0  0
    7.7983   12.5966   15.2489 C   0  0  0  0  0  0  0  0  0  0  0  0
   11.3788   17.3707   11.2764 O   0  0  0  0  0  0  0  0  0  0  0  0
   14.0726   22.8763   15.9518 O   0  0  0  0  0  0  0  0  0  0  0  0
   11.7148   14.7269   10.7109 O   0  0  0  0  0  0  0  0  0  0  0  0
   13.8599   21.7432   13.9922 O   0  0  0  0  0  1  0  0  0  0  0  0
    6.3826   11.9858   15.9157 N   0  0  0  0  0  0  0  0  0  0  0  0
    9.2945   13.0702   14.2197 C   0  0  0  0  0  0  0  0  0  0  0  0
   13.1178   16.6479   13.6910 C   0  0  0  0  0  0  0  0  0  0  0  0
   13.1032   19.4522   15.3346 O   0  0  0  0  0  1  0  0  0  0  0  0
   14.3300   20.0300   16.9273 P   0  0  0  0  0  0  0  0  0  0  0  0
  3  1  1  0
  5  4  1  0
  6  2  2  0
 10  2  1  0
 11  8  1  0
 13  4  1  0
 14 12  1  0
 15  8  1  0
 16  1  1  0
 16  7  1  0
 16 13  1  0
 17  8  1  0
 18  5  2  0
 18  6  1  0
 19  3  1  0
 20 12  1  0
 21  1  1  0
 22 12  1  0
 23 18  1  0
 24  2  1  0
 24  4  1  0
 24 13  1  0
 25  3  1  0
 25  7  1  0
 25 15  1  0
 26  8  1  0
 27  9  1  0
 27 14  1  0
 27 17  1  0
M  RAD  4   8   2  12   2  22   2  26   2
M  END
>  <ID>  (1) 
conformer_0

$$$$
