
     RDKit          3D

 24 25  0  0  0  0  0  0  0  0999 V2000
    9.4301   13.3783   14.1634 C   0  0  2  0  0  0  0  0  0  0  0  0
   12.1240   16.0050   12.4074 C   0  0  2  0  0  0  0  0  0  0  0  0
   13.1477   16.7950   13.4826 C   0  0  0  0  0  0  0  0  0  0  0  0
    9.9438   14.7706   14.7978 C   0  0  0  0  0  0  0  0  0  0  0  0
    9.1846   14.4689   15.5982 N   0  0  0  0  0  0  0  0  0  0  0  0
    7.8359   11.4692   13.9375 N   0  0  0  0  0  0  0  0  0  0  0  0
   12.8198   14.8822   13.5908 O   0  0  0  0  0  0  0  0  0  0  0  0
   10.5344   14.1817   13.6632 N   0  0  0  0  0  0  0  0  0  0  0  0
   13.3057   20.6276   17.7236 O   0  0  0  0  0  0  0  0  0  0  0  0
   12.0211   18.2810   16.8035 O   0  0  0  0  0  0  0  0  0  0  0  0
   13.4417   18.9896   16.3766 P   0  0  0  0  0  5  0  0  0  0  0  0
    7.9862   12.7532   15.2087 C   0  0  0  0  0  0  0  0  0  0  0  0
   11.3316   17.0822   11.3651 O   0  0  0  0  0  0  0  0  0  0  0  0
   14.2422   21.8135   15.2306 P   0  0  0  0  0  4  0  0  0  0  0  0
   14.8699   18.7297   17.2871 O   0  0  0  0  0  0  0  0  0  0  0  0
   12.6055   18.4267   14.9137 O   0  0  0  0  0  0  0  0  0  0  0  0
   14.4009   20.4068   15.7161 O   0  0  0  0  0  1  0  0  0  0  0  0
   11.5847   14.6860   12.3639 C   0  0  1  0  0  0  0  0  0  0  0  0
    9.6172   11.9433   12.6855 N   0  0  0  0  0  0  0  0  0  0  0  0
   11.8590   14.8746   10.6927 O   0  0  0  0  0  0  0  0  0  0  0  0
   14.0091   22.8692   15.8543 O   0  0  0  0  0  0  0  0  0  0  0  0
    7.0016   12.6433   16.1656 O   0  0  0  0  0  0  0  0  0  0  0  0
   13.8953   21.7732   13.8259 O   0  0  0  0  0  0  0  0  0  0  0  0
    8.6945   11.9367   13.5057 C   0  0  0  0  0  0  0  0  0  0  0  0
  3  2  1  0
  4  1  1  0
  5  4  2  3
  7  2  1  0
  1  8  1  6
  8  4  1  0
 11  9  1  0
 11 10  1  0
 12  6  2  3
  2 13  1  1
 15 11  1  0
 15 14  1  0
 16  3  1  0
 16 11  1  0
 17 14  1  0
 18  2  1  0
 18  7  1  0
 18  8  1  0
 18 20  1  6
 21 14  1  0
 22 12  1  0
 23 14  1  0
 24  1  1  0
 24  6  1  0
 24 19  2  3
M  RAD  2  14   2  17   2
M  END
>  <ID>  (1) 
conformer_0

$$$$
