
     RDKit          3D

 31 33  0  0  0  0  0  0  0  0999 V2000
   11.1283   15.5742   12.0391 C   0  0  0  0  0  0  0  0  0  0  0  0
    8.4288   11.4693   13.4365 C   0  0  0  0  0  0  0  0  0  0  0  0
   12.1009   16.7097   12.4215 C   0  0  0  0  0  0  0  0  0  0  0  0
   10.2098   14.9295   14.9972 C   0  0  0  0  0  0  0  0  0  0  0  0
    9.1818   14.4563   15.7241 N   0  0  0  0  0  0  0  0  0  0  0  0
    7.5808   11.4056   14.1646 N   0  0  0  0  0  0  0  0  0  0  0  0
   10.4262   14.1281   13.8197 N   0  0  0  0  0  0  0  0  0  0  0  0
   12.8655   14.8079   13.5201 O   0  0  0  0  0  0  0  0  0  0  0  0
   13.7953   17.4037   14.2632 C   0  0  0  0  0  0  0  0  0  0  0  0
    9.3219   11.8016   12.5996 N   0  0  0  0  0  0  0  0  0  0  0  0
   12.8878   18.3790   16.2680 P   0  0  0  0  0  4  0  0  0  0  0  0
    7.5756   12.3772   15.3674 C   0  0  0  0  0  0  0  0  0  0  0  0
   13.3820   20.3980   17.8381 O   0  0  0  0  0  0  0  0  0  0  0  0
    6.9165   12.4755   16.2373 N   0  0  0  0  0  0  0  0  0  0  0  0
   11.9440   18.1844   16.8868 O   0  0  0  0  0  0  0  0  0  0  0  0
   14.4316   20.3940   15.3946 O   0  0  0  0  0  0  0  0  0  0  0  0
   13.3024   21.7218   13.6598 O   0  0  0  0  0  0  0  0  0  0  0  0
   11.9271   17.4960   11.4533 O   0  0  0  0  0  0  0  0  0  0  0  0
   13.2696   17.3664   15.5998 O   0  0  0  0  0  0  0  0  0  0  0  0
   13.8270   22.4634   16.4974 O   0  0  0  0  0  0  0  0  0  0  0  0
   14.0653   21.7202   14.6830 P   0  0  0  0  0  5  0  0  0  0  0  0
   11.0887   15.3179   10.8001 O   0  0  0  0  0  0  0  0  0  0  0  0
   14.6778   18.5701   17.3333 O   0  0  0  0  0  0  0  0  0  0  0  0
    8.7835   13.3618   15.0702 C   0  0  0  0  0  0  0  0  0  0  0  0
   11.4936   14.3869   12.7204 C   0  0  0  0  0  0  0  0  0  0  0  0
   14.6049   20.2375   17.1386 P   0  0  0  0  0  0  0  0  0  0  0  0
   15.8397   20.5443   17.2735 O   0  0  0  0  0  0  0  0  0  0  0  0
   12.3906   19.2237   15.3009 O   0  0  0  0  0  1  0  0  0  0  0  0
   15.1874   22.5781   14.8780 O   0  0  0  0  0  0  0  0  0  0  0  0
    9.5444   13.1163   13.8045 C   0  0  0  0  0  0  0  0  0  0  0  0
   13.2059   16.1973   13.3290 C   0  0  0  0  0  0  0  0  0  0  0  0
  3  1  1  0
  5  4  2  0
  6  2  1  0
  7  4  1  0
 10  2  1  0
 12  6  2  0
 14 12  1  0
 15 11  1  0
 18  3  1  0
 19  9  1  0
 19 11  1  0
 21 16  1  0
 21 17  1  0
 21 20  1  0
 22  1  1  0
 23 11  1  0
 24  5  1  0
 24 12  1  0
 25  1  1  0
 25  7  1  0
 25  8  1  0
 26 13  1  0
 26 23  1  0
 27 21  1  0
 27 26  1  0
 28 11  1  0
 29 21  1  0
 30  7  1  0
 30 10  1  0
 30 24  2  0
 31  3  1  0
 31  8  1  0
 31  9  1  0
M  RAD  2  11   2  28   2
M  END
>  <ID>  (1) 
conformer_0

$$$$
