
     RDKit          3D

 28 28  0  0  0  0  0  0  0  0999 V2000
    8.6413   11.6914   13.3784 C   0  0  0  0  0  0  0  0  0  0  0  0
   11.4584   14.7574   12.7052 C   0  0  1  0  0  0  0  0  0  0  0  0
   11.2272   15.9836   12.0479 C   0  0  0  0  0  0  0  0  0  0  0  0
   10.0319   14.4539   14.9332 C   0  0  0  0  0  0  0  0  0  0  0  0
    9.2907   14.2402   15.8116 N   0  0  0  0  0  0  0  0  0  0  0  0
    7.4671   11.1924   14.1598 N   0  0  0  0  0  0  0  0  0  0  0  0
   12.6330   14.7055   13.5018 O   0  0  0  0  0  0  0  0  0  0  0  0
   10.4893   14.2048   13.9722 N   0  0  0  0  0  0  0  0  0  0  0  0
   12.7379   18.1895   16.0272 P   0  0  2  0  0  4  0  0  0  0  0  0
   12.0132   18.1033   16.7227 O   0  0  0  0  0  0  0  0  0  0  0  0
   11.5300   17.6764   11.5082 O   0  0  0  0  0  0  0  0  0  0  0  0
   14.2547   22.2411   15.0360 P   0  0  0  0  0  4  0  0  0  0  0  0
   13.1717   17.5031   15.3786 O   0  0  0  0  0  0  0  0  0  0  0  0
   12.4422   16.6419   12.7878 C   0  0  0  0  0  0  0  0  0  0  0  0
   14.9620   19.0699   17.6838 O   0  0  0  0  0  0  0  0  0  0  0  0
    7.8944   12.5427   15.2937 C   0  0  0  0  0  0  0  0  0  0  0  0
   13.4822   22.9757   15.9649 O   0  0  0  0  0  0  0  0  0  0  0  0
   13.9926   22.0280   13.9402 O   0  0  0  0  0  1  0  0  0  0  0  0
    6.6537   12.0439   15.9361 N   0  0  0  0  0  0  0  0  0  0  0  0
   13.1522   20.5228   17.3997 O   0  0  0  0  0  0  0  0  0  0  0  0
   11.2860   15.3538   10.7581 O   0  0  0  0  0  0  0  0  0  0  0  0
   15.8765   22.0938   15.6847 O   0  0  0  0  0  0  0  0  0  0  0  0
    9.1940   12.2050   13.1587 N   0  0  0  0  0  0  0  0  0  0  0  0
   14.5251   20.2084   15.7675 O   0  0  0  0  0  0  0  0  0  0  0  0
    9.3025   13.1194   14.3693 C   0  0  0  0  0  0  0  0  0  0  0  0
   13.4674   16.7401   13.8104 C   0  0  0  0  0  0  0  0  0  0  0  0
   12.4906   19.4070   14.8634 O   0  0  0  0  0  1  0  0  0  0  0  0
   14.3736   20.0305   16.8373 P   0  0  0  0  0  0  0  0  0  0  0  0
  3  2  1  0
  5  4  2  3
  6  1  1  0
  2  7  1  1
  8  2  1  0
  8  4  1  0
  9 10  1  1
 11  3  1  0
 13  9  1  0
 14  3  1  0
 15  9  1  0
 16  6  2  0
 17 12  1  0
 18 12  1  0
 19 16  1  0
 21  3  1  0
 22 12  1  0
 23  1  1  0
 24 12  1  0
 25  4  1  0
 25 16  1  0
 25 23  2  0
 26 13  1  0
 26 14  1  0
 27  9  1  0
 28 15  1  0
 28 20  1  0
 28 24  1  0
M  RAD  4   9   2  12   2  18   2  27   2
M  END
>  <ID>  (1) 
conformer_0

$$$$
