
     RDKit          3D

 28 30  0  0  0  0  0  0  0  0999 V2000
   11.6632   15.5616   12.2068 C   0  0  0  0  0  0  0  0  0  0  0  0
    7.7923   12.4034   15.0044 C   0  0  0  0  0  0  0  0  0  0  0  0
   12.6368   16.1520   12.9260 C   0  0  0  0  0  0  0  0  0  0  0  0
    8.4810   11.5771   13.3970 C   0  0  0  0  0  0  0  0  0  0  0  0
    7.3166   11.1945   14.1687 N   0  0  0  0  0  0  0  0  0  0  0  0
   12.6515   14.7471   13.7235 O   0  0  0  0  0  0  0  0  0  0  0  0
   12.7007   17.3198   15.4961 O   0  0  0  0  0  0  0  0  0  0  0  0
    9.1115   14.1761   15.4710 N   0  0  0  0  0  0  0  0  0  0  0  0
   13.1284   20.2793   17.4422 O   0  0  0  0  0  0  0  0  0  0  0  0
   15.0164   19.0162   17.4027 O   0  0  0  0  0  0  0  0  0  0  0  0
    9.5593   12.2163   13.0647 N   0  0  0  0  0  0  0  0  0  0  0  0
   14.3523   19.8929   16.5760 P   0  0  0  0  0  0  0  0  0  0  0  0
   13.3328   16.7686   14.0771 C   0  0  0  0  0  0  0  0  0  0  0  0
   10.3899   14.1370   13.8976 N   0  0  0  0  0  0  0  0  0  0  0  0
   14.4805   22.1670   14.8299 P   0  0  0  0  0  4  0  0  0  0  0  0
   11.6437   14.7578   10.8220 O   0  0  0  0  0  0  0  0  0  0  0  0
   11.6163   18.1472   16.9545 O   0  0  0  0  0  0  0  0  0  0  0  0
   13.6656   22.8666   15.7751 O   0  0  0  0  0  0  0  0  0  0  0  0
   14.5247   20.2964   15.4858 O   0  0  0  0  0  0  0  0  0  0  0  0
    9.2497   13.1326   14.1129 C   0  0  0  0  0  0  0  0  0  0  0  0
   16.1150   22.2228   15.5136 O   0  0  0  0  0  0  0  0  0  0  0  0
   14.0761   22.1854   13.6746 O   0  0  0  0  0  1  0  0  0  0  0  0
   11.3882   16.8666   11.4343 O   0  0  0  0  0  0  0  0  0  0  0  0
   10.0420   14.5439   14.8941 C   0  0  0  0  0  0  0  0  0  0  0  0
   12.2689   19.2074   15.1217 O   0  0  0  0  0  1  0  0  0  0  0  0
   12.3226   18.2165   16.1096 P   0  0  0  0  0  4  0  0  0  0  0  0
   11.3953   14.3397   12.6143 C   0  0  0  0  0  0  0  0  0  0  0  0
    8.3365   10.5257   12.6699 N   0  0  0  0  0  0  0  0  0  0  0  0
  3  1  1  0
  4  2  1  0
  5  2  2  0
  5  4  1  0
  6  3  1  0
 11  4  1  0
 12  9  1  0
 12 10  1  0
 13  3  1  0
 13  7  1  0
 16  1  1  0
 18 15  1  0
 19 12  1  0
 19 15  1  0
 20  8  1  0
 20 11  1  0
 20 14  1  0
 21 15  1  0
 22 15  1  0
 23  1  1  0
 24  8  2  0
 24 14  1  0
 26  7  1  0
 26 10  1  0
 26 17  1  0
 26 25  1  0
 27  1  1  0
 27  6  1  0
 27 14  1  0
 28  4  1  0
M  RAD  4  15   2  22   2  25   2  26   2
M  END
>  <ID>  (1) 
conformer_0

$$$$
