
     RDKit          3D

 31 33  0  0  0  0  0  0  0  0999 V2000
    9.4398   12.9405   13.6778 C   0  0  0  0  0  0  0  0  0  0  0  0
   11.0726   15.1733   11.9517 C   0  0  0  0  0  0  0  0  0  0  0  0
   11.2330   13.9216   12.7199 C   0  0  0  0  0  0  0  0  0  0  0  0
   10.1995   14.6387   14.9048 C   0  0  0  0  0  0  0  0  0  0  0  0
    9.0516   13.9842   15.6031 N   0  0  0  0  0  0  0  0  0  0  0  0
    7.3340   11.1670   14.0947 N   0  0  0  0  0  0  0  0  0  0  0  0
   12.6533   14.5590   13.4752 O   0  0  0  0  0  0  0  0  0  0  0  0
   13.3047   20.4001   17.4685 O   0  0  0  0  0  0  0  0  0  0  0  0
    6.5591   12.0744   15.9531 N   0  0  0  0  0  0  0  0  0  0  0  0
   14.4441   19.9806   16.6808 P   0  0  0  0  0  0  0  0  0  0  0  0
   12.6463   16.8316   15.2391 O   0  0  0  0  0  0  0  0  0  0  0  0
   11.7409   16.6500   12.4587 C   0  0  0  0  0  0  0  0  0  0  0  0
   10.3337   13.9360   13.7647 N   0  0  0  0  0  0  0  0  0  0  0  0
   14.1122   21.9617   14.4634 P   0  0  0  0  0  4  0  0  0  0  0  0
    8.7172   13.0959   14.8987 C   0  0  0  0  0  0  0  0  0  0  0  0
   14.3424   17.9227   16.9704 O   0  0  0  0  0  1  0  0  0  0  0  0
   13.5432   22.8899   15.3487 O   0  0  0  0  0  0  0  0  0  0  0  0
   14.4146   20.2181   15.2197 O   0  0  0  0  0  0  0  0  0  0  0  0
   11.6498   17.2741   11.5035 O   0  0  0  0  0  0  0  0  0  0  0  0
   11.9105   18.3124   16.9418 O   0  0  0  0  0  0  0  0  0  0  0  0
   13.9037   21.8946   13.2941 O   0  0  0  0  0  1  0  0  0  0  0  0
   15.7001   22.2901   14.8722 O   0  0  0  0  0  0  0  0  0  0  0  0
    9.0550   11.9524   12.8284 N   0  0  0  0  0  0  0  0  0  0  0  0
    8.2262   11.1861   13.0555 C   0  0  0  0  0  0  0  0  0  0  0  0
   15.4919   19.8213   17.2963 O   0  0  0  0  0  0  0  0  0  0  0  0
   11.2321   15.2983   10.7504 O   0  0  0  0  0  0  0  0  0  0  0  0
   13.2738   16.9399   14.1203 C   0  0  0  0  0  0  0  0  0  0  0  0
   12.7187   18.0969   16.1352 P   0  0  0  0  0  4  0  0  0  0  0  0
   12.4139   18.8402   15.2385 O   0  0  0  0  0  0  0  0  0  0  0  0
    7.3761   12.1275   15.0964 C   0  0  0  0  0  0  0  0  0  0  0  0
   12.7097   15.8332   13.1934 C   0  0  0  0  0  0  0  0  0  0  0  0
  3  2  1  0
  5  4  2  0
  7  3  1  0
 10  8  1  0
 12  2  1  0
 13  1  1  0
 13  3  1  0
 13  4  1  0
 15  1  2  0
 15  5  1  0
 17 14  1  0
 18 10  1  0
 18 14  1  0
 19 12  1  0
 21 14  1  0
 22 14  1  0
 23  1  1  0
 24  6  1  0
 24 23  2  0
 25 10  1  0
 26  2  1  0
 27 11  1  0
 28 16  1  0
 28 20  1  0
 28 25  1  0
 29 27  1  0
 29 28  1  0
 30  6  2  0
 30  9  1  0
 30 15  1  0
 31  7  1  0
 31 12  1  0
 31 27  1  0
M  RAD  4  14   2  16   2  21   2  28   2
M  END
>  <ID>  (1) 
conformer_0

$$$$
