
     RDKit          3D

 27 27  0  0  0  0  0  0  0  0999 V2000
   11.5610   15.5337   12.1763 C   0  0  1  0  0  0  0  0  0  0  0  0
    9.2302   13.3536   14.4125 C   0  0  0  0  0  0  0  0  0  0  0  0
   12.4793   16.4777   12.5915 C   0  0  2  0  0  0  0  0  0  0  0  0
    9.9332   14.6664   14.9607 C   0  0  0  0  0  0  0  0  0  0  0  0
    9.1664   14.3283   15.7403 N   0  0  0  0  0  0  0  0  0  0  0  0
    7.5419   11.6529   14.4681 N   0  0  0  0  0  0  0  0  0  0  0  0
   12.6404   14.7727   13.4871 O   0  0  0  0  0  0  0  0  0  0  0  0
   13.3450   20.4111   17.5232 O   0  0  0  0  0  0  0  0  0  0  0  0
   10.2994   14.0925   13.8593 N   0  0  0  0  0  0  0  0  0  0  0  0
   13.2976   17.2246   13.4889 C   0  0  0  0  0  0  0  0  0  0  0  0
   14.5927   20.6557   15.6604 O   0  0  0  0  0  0  0  0  0  0  0  0
    9.0894   11.6427   13.0101 N   0  0  0  0  0  0  0  0  0  0  0  0
   12.7077   18.1413   15.9133 P   0  0  2  0  0  4  0  0  0  0  0  0
   12.5800   17.1537   14.7489 O   0  0  0  0  0  0  0  0  0  0  0  0
   15.2124   19.1847   17.6344 O   0  0  0  0  0  0  0  0  0  0  0  0
   13.5177   22.8403   15.5605 O   0  0  0  0  0  0  0  0  0  0  0  0
    7.6682   12.7979   15.5383 C   0  0  0  0  0  0  0  0  0  0  0  0
   11.9786   18.4642   16.7230 O   0  0  0  0  0  0  0  0  0  0  0  0
   11.2537   17.2348   11.3959 O   0  0  0  0  0  0  0  0  0  0  0  0
   14.3287   21.9069   15.0506 P   0  0  0  0  0  4  0  0  0  0  0  0
   15.9488   22.2842   15.3118 O   0  0  0  0  0  0  0  0  0  0  0  0
   13.9353   21.5825   13.6938 O   0  0  0  0  0  1  0  0  0  0  0  0
   11.5213   14.9339   10.6500 O   0  0  0  0  0  0  0  0  0  0  0  0
   11.2740   14.2959   12.4803 C   0  0  1  0  0  0  0  0  0  0  0  0
    8.4691   11.9758   13.8856 C   0  0  0  0  0  0  0  0  0  0  0  0
   14.4601   19.8489   16.8847 P   0  0  0  0  0  0  0  0  0  0  0  0
   13.6510   18.6216   15.4766 O   0  0  0  0  0  1  0  0  0  0  0  0
  3  1  1  0
  4  2  1  0
  5  4  2  3
  9  2  1  0
  9  4  1  0
 10  3  1  0
 14 10  1  0
 14 13  1  0
 15 13  1  0
 17  6  1  0
 13 18  1  1
  3 19  1  1
 20 11  1  0
 20 16  1  0
 21 20  1  0
 22 20  1  0
  1 23  1  6
 24  1  1  0
 24  7  1  1
 24  9  1  0
 25  2  1  0
 25  6  1  0
 25 12  2  3
 26  8  1  0
 26 11  1  0
 26 15  1  0
 27 13  1  0
M  RAD  4  13   2  20   2  22   2  27   2
M  END
>  <ID>  (1) 
conformer_0

$$$$
