
     RDKit          3D

 28 28  0  0  0  0  0  0  0  0999 V2000
    8.6050   11.6803   13.4416 C   0  0  0  0  0  0  0  0  0  0  0  0
   11.2791   14.3359   12.7426 C   0  0  1  0  0  0  0  0  0  0  0  0
   11.3351   15.5444   12.0745 C   0  0  1  0  0  0  0  0  0  0  0  0
    9.2319   13.1748   14.4351 C   0  0  0  0  0  0  0  0  0  0  0  0
    9.0469   14.2305   15.7301 N   0  0  0  0  0  0  0  0  0  0  0  0
    7.6091   11.2717   14.1804 N   0  0  0  0  0  0  0  0  0  0  0  0
   12.5162   14.6470   13.5028 O   0  0  0  0  0  0  0  0  0  0  0  0
    8.3309   10.6169   12.2589 N   0  0  0  0  0  0  0  0  0  0  0  0
   10.3022   14.0921   14.0209 N   0  0  0  0  0  0  0  0  0  0  0  0
   12.5863   18.0224   16.1815 P   0  0  0  0  0  0  0  0  0  0  0  0
   14.3213   22.0853   14.9303 P   0  0  0  0  0  4  0  0  0  0  0  0
   14.8956   19.1453   17.3277 O   0  0  0  0  0  0  0  0  0  0  0  0
   11.8382   17.3214   11.2558 O   0  0  0  0  0  0  0  0  0  0  0  0
   13.6738   21.7660   13.7882 O   0  0  0  0  0  1  0  0  0  0  0  0
   11.6693   18.1895   16.8170 O   0  0  0  0  0  0  0  0  0  0  0  0
   12.9278   17.6770   15.5139 O   0  0  0  0  0  0  0  0  0  0  0  0
   15.9502   22.1989   15.0922 O   0  0  0  0  0  0  0  0  0  0  0  0
   13.0474   20.5382   17.5381 O   0  0  0  0  0  0  0  0  0  0  0  0
    7.8175   12.4694   15.2792 C   0  0  0  0  0  0  0  0  0  0  0  0
   13.5489   23.0631   15.8495 O   0  0  0  0  0  0  0  0  0  0  0  0
   12.2951   16.5325   12.4918 C   0  0  2  0  0  0  0  0  0  0  0  0
   12.0904   15.0177   10.6880 O   0  0  0  0  0  0  0  0  0  0  0  0
    6.7019   11.9648   16.0313 N   0  0  0  0  0  0  0  0  0  0  0  0
    9.9327   14.6000   15.0191 C   0  0  0  0  0  0  0  0  0  0  0  0
   14.2823   20.2994   15.5279 O   0  0  0  0  0  0  0  0  0  0  0  0
   14.2183   19.9497   16.6742 P   0  0  0  0  0  0  0  0  0  0  0  0
   13.1558   16.1692   13.5752 C   0  0  2  0  0  0  0  0  0  0  0  0
    9.6202   12.1511   12.7186 N   0  0  0  0  0  0  0  0  0  0  0  0
  3  2  1  0
  6  1  1  0
  7  2  1  0
  8  1  2  3
  2  9  1  1
  9  4  1  0
 12 10  1  0
 14 11  1  0
 15 10  1  0
 16 10  1  0
 17 11  1  0
 19  4  1  0
 19  6  1  0
 20 11  1  0
 21  3  1  0
 21 13  1  6
  3 22  1  6
 23 19  2  3
 24  5  2  3
 24  9  1  0
 25 11  1  0
 26 12  1  0
 26 18  1  0
 26 25  1  0
 27  7  1  0
 27 16  1  1
 27 21  1  0
 28  1  1  0
M  RAD  2  11   2  14   2
M  END
>  <ID>  (1) 
conformer_0

$$$$
