
     RDKit          3D

 31 33  0  0  0  0  0  0  0  0999 V2000
   11.6720   16.4425   12.2998 C   0  0  0  0  0  0  0  0  0  0  0  0
    9.4259   13.0227   13.8542 C   0  0  0  0  0  0  0  0  0  0  0  0
   12.8944   15.9005   12.9917 C   0  0  0  0  0  0  0  0  0  0  0  0
   10.0523   14.7885   14.9304 C   0  0  0  0  0  0  0  0  0  0  0  0
    7.4085   11.0250   14.0614 N   0  0  0  0  0  0  0  0  0  0  0  0
    9.0515   14.2043   15.6767 N   0  0  0  0  0  0  0  0  0  0  0  0
   12.6596   14.5195   13.4700 O   0  0  0  0  0  0  0  0  0  0  0  0
    6.6272   11.9205   15.9195 N   0  0  0  0  0  0  0  0  0  0  0  0
   10.2778   13.9947   13.9052 N   0  0  0  0  0  0  0  0  0  0  0  0
   13.4365   16.6025   14.2082 C   0  0  0  0  0  0  0  0  0  0  0  0
   12.7425   18.2663   16.0100 P   0  0  0  0  0  4  0  0  0  0  0  0
   14.1652   18.1636   16.8398 O   0  0  0  0  0  0  0  0  0  0  0  0
   14.3843   22.0726   14.8758 P   0  0  0  0  0  4  0  0  0  0  0  0
   13.3313   20.6112   17.6656 O   0  0  0  0  0  0  0  0  0  0  0  0
   12.6460   17.0176   15.2212 O   0  0  0  0  0  0  0  0  0  0  0  0
   11.4674   17.5001   11.4900 O   0  0  0  0  0  0  0  0  0  0  0  0
    8.7178   13.0773   14.9844 C   0  0  0  0  0  0  0  0  0  0  0  0
   13.6186   21.9907   13.7210 O   0  0  0  0  0  1  0  0  0  0  0  0
   13.7406   22.8891   16.1176 O   0  0  0  0  0  0  0  0  0  0  0  0
   11.7986   18.4963   16.9834 O   0  0  0  0  0  0  0  0  0  0  0  0
    9.2137   11.9267   12.9718 N   0  0  0  0  0  0  0  0  0  0  0  0
    8.3722   11.1131   13.0178 C   0  0  0  0  0  0  0  0  0  0  0  0
   14.6628   20.5299   15.5659 O   0  0  0  0  0  0  0  0  0  0  0  0
   15.8315   22.4882   15.0751 O   0  0  0  0  0  0  0  0  0  0  0  0
   11.3066   14.0788   12.8760 C   0  0  0  0  0  0  0  0  0  0  0  0
   10.9535   15.6226   10.8180 O   0  0  0  0  0  0  0  0  0  0  0  0
   12.5541   19.1808   15.2320 O   0  0  0  0  0  1  0  0  0  0  0  0
   14.3718   20.0768   16.9429 P   0  0  0  0  0  4  0  0  0  0  0  0
   15.2941   19.7057   17.7895 O   0  0  0  0  0  1  0  0  0  0  0  0
    7.5074   12.0787   15.0862 C   0  0  0  0  0  0  0  0  0  0  0  0
   10.9737   15.1122   11.8681 C   0  0  0  0  0  0  0  0  0  0  0  0
  3  1  1  0
  6  4  2  0
  7  3  1  0
  9  2  1  0
  9  4  1  0
 10  3  1  0
 12 11  1  0
 15 10  1  0
 15 11  1  0
 16  1  1  0
 17  2  2  0
 17  6  1  0
 18 13  1  0
 19 13  1  0
 20 11  1  0
 21  2  1  0
 22  5  1  0
 22 21  2  0
 23 13  1  0
 24 13  1  0
 25  7  1  0
 25  9  1  0
 27 11  1  0
 28 12  1  0
 28 14  1  0
 28 23  1  0
 29 28  1  0
 30  5  2  0
 30  8  1  0
 30 17  1  0
 31  1  1  0
 31 25  1  0
 31 26  1  0
M  RAD  6  11   2  13   2  18   2  27   2  28   2  29   2
M  END
>  <ID>  (1) 
conformer_0

$$$$
