
     RDKit          3D

 28 28  0  0  0  0  0  0  0  0999 V2000
   11.1593   14.1291   12.1712 C   0  0  0  0  0  0  0  0  0  0  0  0
    8.5705   11.6831   13.4029 C   0  0  0  0  0  0  0  0  0  0  0  0
   11.4418   15.2884   12.0794 C   0  0  1  0  0  0  0  0  0  0  0  0
    8.0123   12.7282   15.2390 C   0  0  0  0  0  0  0  0  0  0  0  0
    9.2202   14.7062   15.7867 N   0  0  0  0  0  0  0  0  0  0  0  0
    7.9381   11.4713   13.9106 N   0  0  0  0  0  0  0  0  0  0  0  0
   12.5167   14.5110   13.4055 O   0  0  0  0  0  0  0  0  0  0  0  0
    9.9392   14.8420   15.0457 C   0  0  0  0  0  0  0  0  0  0  0  0
   11.4540   17.0893   11.5034 O   0  0  0  0  0  0  0  0  0  0  0  0
   12.3962   16.1177   12.8117 C   0  0  0  0  0  0  0  0  0  0  0  0
   12.7629   18.3821   16.0107 P   0  0  1  0  0  4  0  0  0  0  0  0
   12.5944   17.6047   15.1087 O   0  0  0  0  0  0  0  0  0  0  0  0
   11.8035   18.4355   16.8167 O   0  0  0  0  0  0  0  0  0  0  0  0
   10.3143   14.0768   13.7700 N   0  0  0  0  0  0  0  0  0  0  0  0
   13.6121   22.9290   16.2566 O   0  0  0  0  0  0  0  0  0  0  0  0
   15.3594   20.9655   16.4510 O   0  0  0  0  0  0  0  0  0  0  0  0
   13.9502   22.0005   13.8125 O   0  0  0  0  0  1  0  0  0  0  0  0
   14.4521   22.2435   15.1192 P   0  0  0  0  0  4  0  0  0  0  0  0
   15.8272   22.7350   15.1629 O   0  0  0  0  0  0  0  0  0  0  0  0
   11.5291   14.8465   10.5844 O   0  0  0  0  0  0  0  0  0  0  0  0
   14.9206   18.6565   17.3149 O   0  0  0  0  0  0  0  0  0  0  0  0
    7.1050   12.7187   16.3076 N   0  0  0  0  0  0  0  0  0  0  0  0
   13.3069   20.2978   17.5917 O   0  0  0  0  0  0  0  0  0  0  0  0
    9.3057   13.3246   14.2507 C   0  0  0  0  0  0  0  0  0  0  0  0
    9.3349   11.7791   12.2882 N   0  0  0  0  0  0  0  0  0  0  0  0
   13.1171   16.8634   13.8016 C   0  0  0  0  0  0  0  0  0  0  0  0
   14.5829   20.1488   16.9091 P   0  0  0  0  0  0  0  0  0  0  0  0
   13.5721   19.6187   15.3574 O   0  0  0  0  0  1  0  0  0  0  0  0
  3  1  1  0
  6  2  1  0
  6  4  1  0
  8  5  2  3
 10  3  1  0
 10  7  1  0
 10  9  1  0
 12 11  1  0
 11 13  1  1
 14  1  1  0
 14  8  1  0
 18 15  1  0
 18 16  1  0
 18 17  1  0
 19 18  1  0
  3 20  1  6
 21 11  1  0
 22  4  2  3
 24  4  1  0
 24  8  1  0
 24 14  1  0
 25  2  1  0
 26 10  1  0
 26 12  1  0
 27 16  1  0
 27 21  1  0
 27 23  1  0
 28 11  1  0
M  RAD  4  11   2  17   2  18   2  28   2
M  END
>  <ID>  (1) 
conformer_0

$$$$
