
     RDKit          3D

 29 28  0  0  0  0  0  0  0  0999 V2000
    8.4815   11.6361   13.4407 C   0  0  0  0  0  0  0  0  0  0  0  0
   13.3635   16.8268   13.8827 C   0  0  0  0  0  0  0  0  0  0  0  0
   12.5850   16.5908   12.8105 C   0  0  1  0  0  0  0  0  0  0  0  0
    9.9379   14.5199   14.8807 C   0  0  0  0  0  0  0  0  0  0  0  0
    9.0801   14.3699   15.6447 N   0  0  0  0  0  0  0  0  0  0  0  0
    7.2553   11.2570   14.2852 N   0  0  0  0  0  0  0  0  0  0  0  0
   12.7203   14.8289   13.5195 O   0  0  0  0  0  0  0  0  0  0  0  0
   13.2449   20.5917   17.6216 O   0  0  0  0  0  0  0  0  0  0  0  0
   14.4207   20.1499   17.0106 P   0  0  2  0  0  4  0  0  0  0  0  0
   10.4359   14.0703   13.8814 N   0  0  0  0  0  0  0  0  0  0  0  0
   14.3338   22.0942   14.5614 P   0  0  0  0  0  4  0  0  0  0  0  0
   12.1959   17.2737   11.2837 O   0  0  0  0  0  0  0  0  0  0  0  0
   14.0662   21.9383   13.2424 O   0  0  0  0  0  1  0  0  0  0  0  0
   13.5075   22.9775   15.3311 O   0  0  0  0  0  0  0  0  0  0  0  0
   15.4537   20.0545   17.6258 O   0  0  0  0  0  1  0  0  0  0  0  0
    6.4745   12.2667   15.9442 N   0  0  0  0  0  0  0  0  0  0  0  0
   12.7092   17.6689   15.1848 O   0  0  0  0  0  0  0  0  0  0  0  0
   11.9252   18.6112   16.7858 O   0  0  0  0  0  0  0  0  0  0  0  0
    7.7035   12.6277   15.2592 C   0  0  0  0  0  0  0  0  0  0  0  0
   11.5590   15.5543   12.1072 C   0  0  1  0  0  0  0  0  0  0  0  0
   15.8367   22.2966   14.8189 O   0  0  0  0  0  0  0  0  0  0  0  0
   11.4723   14.9849   10.7769 O   0  0  0  0  0  0  0  0  0  0  0  0
   14.1738   20.3131   15.3602 O   0  0  0  0  0  0  0  0  0  0  0  0
    9.1744   13.1808   14.2951 C   0  0  0  0  0  0  0  0  0  0  0  0
    9.7885   12.4069   12.8600 N   0  0  0  0  0  0  0  0  0  0  0  0
   12.7963   18.2743   16.1247 P   0  0  0  0  0  0  0  0  0  0  0  0
   14.2894   18.2772   16.9450 O   0  0  0  0  0  0  0  0  0  0  0  0
   11.4269   14.2925   12.5379 C   0  0  1  0  0  0  0  0  0  0  0  0
    8.7574   11.7777   13.1077 N   0  0  0  0  0  0  0  0  0  0  0  0
  3  2  1  0
  5  4  2  3
  6  1  1  0
  9  8  1  1
 10  4  1  0
  3 12  1  6
 13 11  1  0
 14 11  1  0
 15  9  1  0
 17  2  1  0
 19  6  1  0
 19 16  2  3
 20  3  1  0
 21 11  1  0
 20 22  1  6
 23  9  1  0
 23 11  1  0
 24 10  1  0
 24 19  1  0
 26 17  1  0
 26 18  1  0
 27  9  1  0
 27 26  1  0
 28  7  1  1
 28 10  1  0
 28 20  1  0
 29  1  1  0
 29 25  1  0
M  RAD  4   9   2  11   2  13   2  15   2
M  END
>  <ID>  (1) 
conformer_0

$$$$
