
     RDKit          3D

 27 28  0  0  0  0  0  0  0  0999 V2000
    8.4837   11.3825   13.1572 C   0  0  0  0  0  0  0  0  0  0  0  0
   11.5042   14.2331   12.6335 C   0  0  1  0  0  0  0  0  0  0  0  0
   11.5933   15.4972   12.2593 C   0  0  0  0  0  0  0  0  0  0  0  0
    9.9931   14.4044   14.8969 C   0  0  0  0  0  0  0  0  0  0  0  0
    9.4875   12.0411   12.7730 N   0  0  0  0  0  0  0  0  0  0  0  0
   12.7060   14.5285   13.7091 O   0  0  0  0  0  0  0  0  0  0  0  0
    9.1424   14.2412   15.7423 N   0  0  0  0  0  0  0  0  0  0  0  0
   12.6190   16.1342   12.7990 C   0  0  2  0  0  0  0  0  0  0  0  0
    6.6439   12.2293   15.9761 N   0  0  0  0  0  0  0  0  0  0  0  0
   11.8075   18.3158   16.8421 O   0  0  0  0  0  0  0  0  0  0  0  0
   14.7428   19.1602   17.4373 O   0  0  0  0  0  0  0  0  0  0  0  0
   12.5986   18.2592   16.0239 P   0  0  1  0  0  4  0  0  0  0  0  0
   12.8734   17.2615   15.3661 O   0  0  0  0  0  0  0  0  0  0  0  0
   10.4277   14.0481   13.9871 N   0  0  0  0  0  0  0  0  0  0  0  0
   11.5402   17.0335   11.3907 O   0  0  0  0  0  0  0  0  0  0  0  0
   13.5758   23.1178   15.6879 O   0  0  0  0  0  0  0  0  0  0  0  0
    7.8870   12.4032   15.1105 C   0  0  0  0  0  0  0  0  0  0  0  0
   14.0160   22.1643   14.7957 P   0  0  2  0  0  4  0  0  0  0  0  0
   13.2351   20.8905   17.5845 O   0  0  0  0  0  0  0  0  0  0  0  0
   13.7262   21.8116   13.5253 O   0  0  0  0  0  1  0  0  0  0  0  0
    7.5460   11.1252   13.9637 N   0  0  0  0  0  0  0  0  0  0  0  0
    9.2098   13.0218   14.3248 C   0  0  0  0  0  0  0  0  0  0  0  0
   11.9576   14.7919   10.8407 O   0  0  0  0  0  0  0  0  0  0  0  0
   14.4743   20.8251   15.7060 O   0  0  0  0  0  0  0  0  0  0  0  0
   13.4561   16.6724   14.0099 C   0  0  0  0  0  0  0  0  0  0  0  0
   14.2039   20.2169   16.8939 P   0  0  0  0  0  0  0  0  0  0  0  0
   12.5170   19.1970   15.2016 O   0  0  0  0  0  1  0  0  0  0  0  0
  3  2  1  0
  5  1  2  0
  6  2  1  0
  7  4  2  3
  8  3  1  0
  8  6  1  0
 12 10  1  1
 12 11  1  0
 13 12  1  0
  2 14  1  1
 14  4  1  0
 15  3  1  0
 17  9  1  0
 18 16  1  1
 20 18  1  0
 21  1  1  0
 21 17  1  0
 22  5  1  0
 22 14  1  0
 22 17  2  0
 23  3  1  0
 24 18  1  0
  8 25  1  1
 25 13  1  0
 26 11  1  0
 26 19  1  0
 26 24  1  0
 27 12  1  0
M  RAD  4  12   2  18   2  20   2  27   2
M  END
>  <ID>  (1) 
conformer_0

$$$$
