
     RDKit          3D

 27 26  0  0  0  0  0  0  0  0999 V2000
   11.2615   15.8040   12.0238 C   0  0  1  0  0  0  0  0  0  0  0  0
    8.6198   11.5832   13.3080 C   0  0  0  0  0  0  0  0  0  0  0  0
    9.9294   14.3968   14.8893 C   0  0  0  0  0  0  0  0  0  0  0  0
   12.2577   16.3604   12.5217 C   0  0  2  0  0  0  0  0  0  0  0  0
    7.5934   11.1618   14.0391 N   0  0  0  0  0  0  0  0  0  0  0  0
    9.0632   14.0119   15.6790 N   0  0  0  0  0  0  0  0  0  0  0  0
   12.5910   14.5747   13.5233 O   0  0  0  0  0  0  0  0  0  0  0  0
   11.9230   18.2311   16.8631 O   0  0  0  0  0  0  0  0  0  0  0  0
   14.1862   21.6703   14.5722 P   0  0  0  0  0  5  0  0  0  0  0  0
   13.3698   20.7695   17.5769 O   0  0  0  0  0  0  0  0  0  0  0  0
    7.8253   12.4316   15.1416 C   0  0  0  0  0  0  0  0  0  0  0  0
   12.1244   18.1814   14.9347 O   0  0  0  0  0  0  0  0  0  0  0  0
   13.3332   16.5220   13.8521 C   0  0  0  0  0  0  0  0  0  0  0  0
   14.2083   20.0042   15.6643 O   0  0  0  0  0  0  0  0  0  0  0  0
   10.4085   13.9922   13.8966 N   0  0  0  0  0  0  0  0  0  0  0  0
   11.6678   17.4855   11.2593 O   0  0  0  0  0  0  0  0  0  0  0  0
   15.0978   19.5607   17.9598 O   0  0  0  0  0  1  0  0  0  0  0  0
   13.3976   22.8226   15.0146 O   0  0  0  0  0  0  0  0  0  0  0  0
   12.4233   18.3156   15.8288 P   0  0  0  0  0  0  0  0  0  0  0  0
    9.3915   11.7632   12.6552 N   0  0  0  0  0  0  0  0  0  0  0  0
   14.4464   20.2077   17.1089 P   0  0  2  0  0  4  0  0  0  0  0  0
   14.0814   21.2975   13.5449 O   0  0  0  0  0  0  0  0  0  0  0  0
    6.3452   12.0056   15.7016 N   0  0  0  0  0  0  0  0  0  0  0  0
   11.1192   15.2008   10.6716 O   0  0  0  0  0  0  0  0  0  0  0  0
   15.6881   22.3104   15.1367 O   0  0  0  0  0  0  0  0  0  0  0  0
    9.2438   13.0087   14.2728 C   0  0  0  0  0  0  0  0  0  0  0  0
   11.5023   14.3668   12.7571 C   0  0  1  0  0  0  0  0  0  0  0  0
  4  1  1  0
  5  2  1  0
  6  3  2  3
 11  5  1  0
 13  4  1  0
 13 12  1  0
 14  9  1  0
 15  3  1  0
  4 16  1  1
 18  9  1  0
 19  8  1  0
 19  9  1  0
 19 12  1  0
 20  2  1  0
 21 10  1  1
 21 14  1  0
 21 17  1  0
 22  9  1  0
 23 11  2  3
  1 24  1  6
 25  9  1  0
 26 11  1  0
 26 15  1  0
 27  1  1  0
 27  7  1  1
 27 15  1  0
M  RAD  2  17   2  21   2
M  END
>  <ID>  (1) 
conformer_0

$$$$
