
     RDKit          3D

 31 33  0  0  0  0  0  0  0  0999 V2000
   11.4654   14.1204   12.6095 C   0  0  0  0  0  0  0  0  0  0  0  0
    8.3636   11.0526   13.0225 C   0  0  0  0  0  0  0  0  0  0  0  0
   12.5985   15.6625   12.5855 C   0  0  0  0  0  0  0  0  0  0  0  0
   10.1159   14.7571   14.6890 C   0  0  0  0  0  0  0  0  0  0  0  0
    8.9529   14.1766   15.6075 N   0  0  0  0  0  0  0  0  0  0  0  0
   12.8388   14.8463   13.5261 O   0  0  0  0  0  0  0  0  0  0  0  0
   10.3718   14.1308   13.8647 N   0  0  0  0  0  0  0  0  0  0  0  0
    7.4302   11.2014   14.1783 N   0  0  0  0  0  0  0  0  0  0  0  0
   11.8888   18.2600   16.8007 O   0  0  0  0  0  0  0  0  0  0  0  0
    6.6032   12.5222   15.9790 N   0  0  0  0  0  0  0  0  0  0  0  0
   12.6323   18.2511   15.9493 P   0  0  0  0  0  4  0  0  0  0  0  0
   13.2255   20.4557   17.6785 O   0  0  0  0  0  0  0  0  0  0  0  0
   12.3073   17.1724   12.7352 C   0  0  0  0  0  0  0  0  0  0  0  0
    7.5471   12.1759   15.0150 C   0  0  0  0  0  0  0  0  0  0  0  0
   13.5422   22.8005   15.8152 O   0  0  0  0  0  0  0  0  0  0  0  0
   11.8562   18.9644   14.7996 O   0  0  0  0  0  1  0  0  0  0  0  0
   14.7393   18.4272   17.3245 O   0  0  0  0  0  0  0  0  0  0  0  0
   12.0795   17.2883   11.2594 O   0  0  0  0  0  0  0  0  0  0  0  0
   14.6071   22.1393   15.3536 P   0  0  0  0  0  5  0  0  0  0  0  0
   11.6259   14.7562   10.5893 O   0  0  0  0  0  0  0  0  0  0  0  0
   15.4107   20.7115   17.1094 O   0  0  0  0  0  0  0  0  0  0  0  0
    9.4105   12.0151   12.7944 N   0  0  0  0  0  0  0  0  0  0  0  0
   15.9177   22.5329   15.5727 O   0  0  0  0  0  0  0  0  0  0  0  0
   14.3208   21.6958   14.0059 O   0  0  0  0  0  0  0  0  0  0  0  0
    8.7754   13.3157   14.8817 C   0  0  0  0  0  0  0  0  0  0  0  0
   13.5139   16.9647   14.1569 C   0  0  0  0  0  0  0  0  0  0  0  0
   14.3195   20.0474   16.9865 P   0  0  0  0  0  0  0  0  0  0  0  0
   13.0952   17.3901   15.4007 O   0  0  0  0  0  0  0  0  0  0  0  0
   14.1823   19.9605   15.4172 O   0  0  0  0  0  0  0  0  0  0  0  0
   11.2288   15.5208   11.7588 C   0  0  0  0  0  0  0  0  0  0  0  0
    9.4268   12.7944   13.7118 C   0  0  0  0  0  0  0  0  0  0  0  0
  5  4  2  0
  6  1  1  0
  6  3  1  0
  7  1  1  0
  7  4  1  0
  8  2  2  0
 11  9  1  0
 13  3  1  0
 14  8  1  0
 14 10  1  0
 16 11  1  0
 17 11  1  0
 18 13  1  0
 19 15  1  0
 21 19  1  0
 22  2  1  0
 23 19  1  0
 24 19  1  0
 25  5  1  0
 25 14  2  0
 26 13  1  0
 27 12  1  0
 27 17  1  0
 27 21  1  0
 28 11  1  0
 28 26  1  0
 29 19  1  0
 30  1  1  0
 30  3  1  0
 30 20  1  0
 31  7  1  0
 31 22  2  0
 31 25  1  0
M  RAD  2  11   2  16   2
M  END
>  <ID>  (1) 
conformer_0

$$$$
