
     RDKit          3D

 26 25  0  0  0  0  0  0  0  0999 V2000
    8.5715   11.6034   13.2760 C   0  0  0  0  0  0  0  0  0  0  0  0
   11.0388   14.2899   12.3597 C   0  0  0  0  0  0  0  0  0  0  0  0
   11.2776   15.6453   12.0569 C   0  0  0  0  0  0  0  0  0  0  0  0
    9.9561   14.6782   15.1142 C   0  0  0  0  0  0  0  0  0  0  0  0
    9.2148   14.1752   15.7480 N   0  0  0  0  0  0  0  0  0  0  0  0
    8.0758   11.4948   13.7157 N   0  0  0  0  0  0  0  0  0  0  0  0
   12.4489   14.5870   13.5755 O   0  0  0  0  0  0  0  0  0  0  0  0
   12.4598   16.0826   12.6193 C   0  0  2  0  0  0  0  0  0  0  0  0
   14.4133   20.0454   17.0046 P   0  0  0  0  0  0  0  0  0  0  0  0
   13.3744   20.4519   17.6794 O   0  0  0  0  0  0  0  0  0  0  0  0
   12.1164   17.1831   15.1833 O   0  0  0  0  0  0  0  0  0  0  0  0
   11.6301   17.3341   11.3765 O   0  0  0  0  0  0  0  0  0  0  0  0
   14.5145   22.3257   15.0974 P   0  0  1  0  0  4  0  0  0  0  0  0
   11.5706   18.4421   16.8402 O   0  0  0  0  0  0  0  0  0  0  0  0
   10.2024   13.8691   13.6532 N   0  0  0  0  0  0  0  0  0  0  0  0
   15.3094   19.4656   17.7222 O   0  0  0  0  0  0  0  0  0  0  0  0
    8.0574   12.5409   15.1648 C   0  0  0  0  0  0  0  0  0  0  0  0
   14.0544   23.0423   15.7520 O   0  0  0  0  0  0  0  0  0  0  0  0
   11.6916   15.0233   10.6561 O   0  0  0  0  0  0  0  0  0  0  0  0
   15.1682   20.8507   15.8832 O   0  0  0  0  0  0  0  0  0  0  0  0
   12.3869   18.1548   15.9447 P   0  0  2  0  0  4  0  0  0  0  0  0
   14.3067   22.1459   13.7287 O   0  0  0  0  0  1  0  0  0  0  0  0
    9.3679   13.1922   14.2233 C   0  0  0  0  0  0  0  0  0  0  0  0
   13.3509   16.5298   13.8455 C   0  0  0  0  0  0  0  0  0  0  0  0
    6.8054   11.8785   15.9509 N   0  0  0  0  0  0  0  0  0  0  0  0
   13.5721   18.6483   15.8578 O   0  0  0  0  0  1  0  0  0  0  0  0
  3  2  1  0
  5  4  2  3
  6  1  2  3
  8  3  1  0
  8  7  1  1
 10  9  1  0
 12  3  1  0
 15  2  1  0
 15  4  1  0
 16  9  1  0
 17  6  1  0
 13 18  1  1
 19  3  1  0
 20  9  1  0
 20 13  1  0
 21 11  1  0
 21 14  1  6
 21 16  1  0
 22 13  1  0
 23 15  1  0
 23 17  1  0
 24  8  1  0
 24 11  1  0
 25 17  2  3
 26 21  1  0
M  RAD  4  13   2  21   2  22   2  26   2
M  END
>  <ID>  (1) 
conformer_0

$$$$
