
     RDKit          3D

 30 31  0  0  0  0  0  0  0  0999 V2000
    8.8873   13.3920   14.9073 C   0  0  0  0  0  0  0  0  0  0  0  0
   11.4451   15.2131   11.9991 C   0  0  0  0  0  0  0  0  0  0  0  0
   12.0573   16.4125   12.5203 C   0  0  0  0  0  0  0  0  0  0  0  0
   10.0866   14.9625   14.9154 C   0  0  0  0  0  0  0  0  0  0  0  0
    9.1085   14.5224   15.6202 N   0  0  0  0  0  0  0  0  0  0  0  0
    7.5466   11.3597   14.0928 N   0  0  0  0  0  0  0  0  0  0  0  0
   12.5516   14.4399   13.5532 O   0  0  0  0  0  0  0  0  0  0  0  0
   10.2962   13.9310   13.7151 N   0  0  0  0  0  0  0  0  0  0  0  0
   13.2961   20.2795   17.4113 O   0  0  0  0  0  0  0  0  0  0  0  0
   12.4230   18.1988   15.9316 P   0  0  0  0  0  4  0  0  0  0  0  0
   11.6756   18.0776   16.8622 O   0  0  0  0  0  0  0  0  0  0  0  0
   15.0647   18.7033   17.4678 O   0  0  0  0  0  0  0  0  0  0  0  0
   14.5687   22.0624   15.0802 P   0  0  0  0  0  4  0  0  0  0  0  0
   11.5357   17.2357   11.4364 O   0  0  0  0  0  0  0  0  0  0  0  0
   11.4516   18.8995   14.7580 O   0  0  0  0  0  0  0  0  0  0  0  0
    7.5923   12.3921   15.2085 C   0  0  0  0  0  0  0  0  0  0  0  0
    9.0745   11.4469   12.8288 N   0  0  0  0  0  0  0  0  0  0  0  0
   11.3742   13.9669   12.5112 C   0  0  0  0  0  0  0  0  0  0  0  0
   15.5108   20.9962   16.0238 O   0  0  0  0  0  0  0  0  0  0  0  0
   13.5672   22.6894   15.8746 O   0  0  0  0  0  0  0  0  0  0  0  0
   11.7294   14.8309   10.6413 O   0  0  0  0  0  0  0  0  0  0  0  0
    6.7248   12.3601   15.8202 O   0  0  0  0  0  0  0  0  0  0  0  0
   14.3117   21.8177   13.8603 O   0  0  0  0  0  1  0  0  0  0  0  0
   15.9723   22.8666   15.3341 O   0  0  0  0  0  0  0  0  0  0  0  0
    8.3560   11.3900   13.3814 C   0  0  0  0  0  0  0  0  0  0  0  0
   14.4593   19.7789   16.8505 P   0  0  0  0  0  0  0  0  0  0  0  0
   13.8515   19.3725   15.5154 O   0  0  0  0  0  1  0  0  0  0  0  0
   13.0440   16.3784   13.4111 C   0  0  0  0  0  0  0  0  0  0  0  0
   12.7207   17.2022   15.4264 O   0  0  0  0  0  0  0  0  0  0  0  0
    9.5008   13.0683   13.7272 C   0  0  0  0  0  0  0  0  0  0  0  0
  3  2  1  0
  5  1  1  0
  5  4  2  0
  8  4  1  0
 11 10  1  0
 12 10  1  0
 14  3  1  0
 16  1  1  0
 16  6  1  0
 18  2  1  0
 18  7  1  0
 18  8  1  0
 19 13  1  0
 20 13  1  0
 21  2  1  0
 22 16  2  0
 23 13  1  0
 24 13  1  0
 25  6  1  0
 25 17  1  0
 26  9  1  0
 26 12  1  0
 26 19  1  0
 27 10  1  0
 28  3  1  0
 28 15  1  0
 29 10  1  0
 29 28  1  0
 30  1  2  0
 30  8  1  0
 30 17  1  0
M  RAD  4  10   2  13   2  23   2  27   2
M  END
>  <ID>  (1) 
conformer_0

$$$$
