
     RDKit          3D

 28 27  0  0  0  0  0  0  0  0999 V2000
   11.5257   15.5691   12.1901 C   0  0  1  0  0  0  0  0  0  0  0  0
    9.0281   13.1680   14.3390 C   0  0  0  0  0  0  0  0  0  0  0  0
   12.2916   16.6042   12.5934 C   0  0  2  0  0  0  0  0  0  0  0  0
    9.7960   14.4750   14.8588 C   0  0  0  0  0  0  0  0  0  0  0  0
    7.2970   11.2198   14.2547 N   0  0  0  0  0  0  0  0  0  0  0  0
    8.9497   14.2309   15.6789 N   0  0  0  0  0  0  0  0  0  0  0  0
   12.6932   14.8602   13.5974 O   0  0  0  0  0  0  0  0  0  0  0  0
   14.3590   20.0051   16.7373 P   0  0  0  0  0  0  0  0  0  0  0  0
   13.3046   16.9151   13.6181 C   0  0  0  0  0  0  0  0  0  0  0  0
    6.4501   12.2165   16.0433 N   0  0  0  0  0  0  0  0  0  0  0  0
   10.2197   14.0408   13.8802 N   0  0  0  0  0  0  0  0  0  0  0  0
   13.2411   20.4316   17.5345 O   0  0  0  0  0  0  0  0  0  0  0  0
   13.2141   17.4007   15.6972 O   0  0  0  0  0  0  0  0  0  0  0  0
    7.5896   12.5327   15.2119 C   0  0  0  0  0  0  0  0  0  0  0  0
   16.2564   22.1657   15.4202 O   0  0  0  0  0  0  0  0  0  0  0  0
   14.9100   18.8468   17.4039 O   0  0  0  0  0  0  0  0  0  0  0  0
   11.3813   17.3236   11.3444 O   0  0  0  0  0  0  0  0  0  0  0  0
   11.7174   18.2566   16.8707 O   0  0  0  0  0  0  0  0  0  0  0  0
   14.5196   21.6855   13.6416 O   0  0  0  0  0  1  0  0  0  0  0  0
   14.8811   21.8996   15.0364 P   0  0  0  0  0  4  0  0  0  0  0  0
   11.5509   14.7573   10.7726 O   0  0  0  0  0  0  0  0  0  0  0  0
    9.1400   12.0039   12.9402 N   0  0  0  0  0  0  0  0  0  0  0  0
   13.8975   22.5289   15.9066 O   0  0  0  0  0  0  0  0  0  0  0  0
   11.3210   14.2934   12.6352 C   0  0  1  0  0  0  0  0  0  0  0  0
    8.3316   11.5462   13.4729 C   0  0  0  0  0  0  0  0  0  0  0  0
   14.4705   20.0451   15.4881 O   0  0  0  0  0  0  0  0  0  0  0  0
   12.0985   18.8841   15.0275 O   0  0  0  0  0  0  0  0  0  0  0  0
   12.6477   18.2024   15.9731 P   0  0  0  0  0  5  0  0  0  0  0  0
  3  1  1  0
  6  4  2  3
  9  3  1  0
 11  2  1  0
 11  4  1  0
 12  8  1  0
 14  2  1  0
 14  5  1  0
 14 10  2  3
 16  8  1  0
  3 17  1  1
 20 15  1  0
 20 19  1  0
  1 21  1  6
 23 20  1  0
 24  1  1  0
 24  7  1  1
 24 11  1  0
 25  5  1  0
 25 22  3  0
 26  8  1  0
 26 20  1  0
 27 13  1  0
 28  9  1  0
 28 13  1  0
 28 16  1  0
 28 18  1  0
M  RAD  2  19   2  20   2
M  END
>  <ID>  (1) 
conformer_0

$$$$
