
     RDKit          3D

 31 33  0  0  0  0  0  0  0  0999 V2000
   11.4554   13.9944   12.5980 C   0  0  0  0  0  0  0  0  0  0  0  0
    8.3183   10.9367   12.8558 C   0  0  0  0  0  0  0  0  0  0  0  0
   11.0719   15.2322   11.8429 C   0  0  0  0  0  0  0  0  0  0  0  0
    8.7895   12.8871   14.8113 C   0  0  0  0  0  0  0  0  0  0  0  0
    7.4937   11.0248   14.0131 N   0  0  0  0  0  0  0  0  0  0  0  0
   12.6264   14.6830   13.4230 O   0  0  0  0  0  0  0  0  0  0  0  0
    9.0855   13.9617   15.4368 N   0  0  0  0  0  0  0  0  0  0  0  0
   11.3926   18.3626   16.7326 O   0  0  0  0  0  0  0  0  0  0  0  0
   10.3869   13.8842   13.6534 N   0  0  0  0  0  0  0  0  0  0  0  0
   14.3965   21.9619   15.0283 P   0  0  0  0  0  5  0  0  0  0  0  0
   11.7047   16.7636   12.3751 C   0  0  0  0  0  0  0  0  0  0  0  0
    6.9532   12.1923   16.0441 N   0  0  0  0  0  0  0  0  0  0  0  0
   12.6098   16.7989   16.1091 O   0  0  0  0  0  0  0  0  0  0  0  0
   13.1922   20.3792   17.5519 O   0  0  0  0  0  0  0  0  0  0  0  0
    7.5593   12.0126   15.0231 C   0  0  0  0  0  0  0  0  0  0  0  0
   12.3276   18.0258   16.1357 P   0  0  0  0  0  5  0  0  0  0  0  0
   14.4733   20.4773   15.4477 O   0  0  0  0  0  0  0  0  0  0  0  0
   11.6817   14.7044   10.5516 O   0  0  0  0  0  0  0  0  0  0  0  0
   13.5128   21.7082   13.6600 O   0  0  0  0  0  0  0  0  0  0  0  0
   13.7088   22.7245   16.1524 O   0  0  0  0  0  0  0  0  0  0  0  0
   11.4688   17.4237   11.4441 O   0  0  0  0  0  0  0  0  0  0  0  0
    9.3457   11.9054   12.6860 N   0  0  0  0  0  0  0  0  0  0  0  0
   15.8131   22.4748   15.2329 O   0  0  0  0  0  0  0  0  0  0  0  0
   10.1736   14.6656   14.7007 C   0  0  0  0  0  0  0  0  0  0  0  0
   14.4061   18.4668   16.9807 O   0  0  0  0  0  0  0  0  0  0  0  0
   12.8401   16.0237   12.8105 C   0  0  0  0  0  0  0  0  0  0  0  0
   14.3620   20.1214   16.7692 P   0  0  0  0  0  0  0  0  0  0  0  0
   12.4771   18.5559   15.1453 O   0  0  0  0  0  0  0  0  0  0  0  0
   15.6353   20.5035   17.2838 O   0  0  0  0  0  0  0  0  0  0  0  0
   13.5301   16.8537   14.1962 C   0  0  0  0  0  0  0  0  0  0  0  0
    9.4821   12.7880   13.5357 C   0  0  0  0  0  0  0  0  0  0  0  0
  3  1  1  0
  5  2  2  0
  6  1  1  0
  7  4  1  0
  9  1  1  0
 11  3  1  0
 15  4  2  0
 15  5  1  0
 15 12  1  0
 16  8  1  0
 17 10  1  0
 18  3  1  0
 19 10  1  0
 20 10  1  0
 21 11  1  0
 22  2  1  0
 23 10  1  0
 24  7  2  0
 24  9  1  0
 25 16  1  0
 26  6  1  0
 26 11  1  0
 27 14  1  0
 27 17  1  0
 27 25  1  0
 28 13  1  0
 28 16  1  0
 29 10  1  0
 30 16  1  0
 30 26  1  0
 31  4  1  0
 31  9  1  0
 31 22  2  0
M  END
>  <ID>  (1) 
conformer_0

$$$$
