
     RDKit          3D

 28 29  0  0  0  0  0  0  0  0999 V2000
   11.7141   15.4092   12.2031 C   0  0  1  0  0  0  0  0  0  0  0  0
    8.4919   11.2825   13.0416 C   0  0  0  0  0  0  0  0  0  0  0  0
   11.4444   14.1724   12.3801 C   0  0  1  0  0  0  0  0  0  0  0  0
   10.0505   14.3808   14.7628 C   0  0  0  0  0  0  0  0  0  0  0  0
    7.4841   10.8902   13.9584 N   0  0  0  0  0  0  0  0  0  0  0  0
   12.6714   14.7307   13.5620 O   0  0  0  0  0  0  0  0  0  0  0  0
   13.3175   20.6409   17.6618 O   0  0  0  0  0  0  0  0  0  0  0  0
    9.2008   14.0741   15.4847 N   0  0  0  0  0  0  0  0  0  0  0  0
   10.4972   13.8939   13.7096 N   0  0  0  0  0  0  0  0  0  0  0  0
    6.7996   11.8562   15.8372 N   0  0  0  0  0  0  0  0  0  0  0  0
   14.3883   20.0942   16.9509 P   0  0  0  0  0  0  0  0  0  0  0  0
   15.2134   19.3842   17.6101 O   0  0  0  0  0  0  0  0  0  0  0  0
   11.4868   18.4608   16.8426 O   0  0  0  0  0  0  0  0  0  0  0  0
    8.0482   12.2677   14.9504 C   0  0  0  0  0  0  0  0  0  0  0  0
   12.7503   17.3090   15.7037 O   0  0  0  0  0  0  0  0  0  0  0  0
   14.2125   22.1635   14.7723 P   0  0  0  0  0  4  0  0  0  0  0  0
   12.7096   16.3784   12.8569 C   0  0  0  0  0  0  0  0  0  0  0  0
   11.7940   17.2801   11.4578 O   0  0  0  0  0  0  0  0  0  0  0  0
   13.7154   22.0664   13.6698 O   0  0  0  0  0  1  0  0  0  0  0  0
   15.7247   22.0782   15.3273 O   0  0  0  0  0  0  0  0  0  0  0  0
   14.1434   20.0063   15.6838 O   0  0  0  0  0  0  0  0  0  0  0  0
   13.5647   23.1189   15.7811 O   0  0  0  0  0  0  0  0  0  0  0  0
   12.2889   18.3262   15.9822 P   0  0  2  0  0  4  0  0  0  0  0  0
    9.3821   12.8989   14.0246 C   0  0  0  0  0  0  0  0  0  0  0  0
    9.0650   11.6932   12.7236 N   0  0  0  0  0  0  0  0  0  0  0  0
   11.5599   15.1615   10.7566 O   0  0  0  0  0  0  0  0  0  0  0  0
   13.2795   16.8912   14.0211 C   0  0  0  0  0  0  0  0  0  0  0  0
   11.9972   18.8607   14.9012 O   0  0  0  0  0  1  0  0  0  0  0  0
  3  1  1  0
  5  2  2  0
  6  3  1  0
  8  4  2  3
  3  9  1  1
  9  4  1  0
 11  7  1  0
 12 11  1  0
 14  5  1  0
 14 10  1  0
 17  1  1  0
 17  6  1  0
 18 17  1  0
 19 16  1  0
 20 16  1  0
 21 11  1  0
 21 16  1  0
 22 16  1  0
 23 12  1  0
 23 13  1  1
 23 15  1  0
 24  9  1  0
 24 14  2  0
 25  2  1  0
 25 24  1  0
  1 26  1  6
 27 15  1  0
 27 17  1  0
 28 23  1  0
M  RAD  4  16   2  19   2  23   2  28   2
M  END
>  <ID>  (1) 
conformer_0

$$$$
