
     RDKit          3D

 30 31  0  0  0  0  0  0  0  0999 V2000
    9.5407   13.0191   13.6385 C   0  0  0  0  0  0  0  0  0  0  0  0
   11.5761   14.4061   12.5381 C   0  0  0  0  0  0  0  0  0  0  0  0
   11.5230   15.6079   11.9709 C   0  0  0  0  0  0  0  0  0  0  0  0
   10.2623   14.8593   14.9461 C   0  0  0  0  0  0  0  0  0  0  0  0
    7.6761   11.4281   14.1334 N   0  0  0  0  0  0  0  0  0  0  0  0
    9.2063   14.3378   15.6197 N   0  0  0  0  0  0  0  0  0  0  0  0
   12.7658   14.6722   13.5940 O   0  0  0  0  0  0  0  0  0  0  0  0
   10.4456   14.0388   13.7725 N   0  0  0  0  0  0  0  0  0  0  0  0
   14.6707   22.1878   15.0421 P   0  0  0  0  0  5  0  0  0  0  0  0
   12.6410   16.3800   12.6411 C   0  0  0  0  0  0  0  0  0  0  0  0
    7.6043   12.3593   15.2572 C   0  0  0  0  0  0  0  0  0  0  0  0
   13.2326   20.5878   17.5494 O   0  0  0  0  0  0  0  0  0  0  0  0
   11.4948   17.3044   11.3993 O   0  0  0  0  0  0  0  0  0  0  0  0
   13.8365   22.8452   15.8715 O   0  0  0  0  0  0  0  0  0  0  0  0
    6.9395   12.3661   16.2355 N   0  0  0  0  0  0  0  0  0  0  0  0
   12.4574   17.2094   15.3749 O   0  0  0  0  0  0  0  0  0  0  0  0
   16.1549   22.2219   15.2116 O   0  0  0  0  0  0  0  0  0  0  0  0
   14.1080   18.6069   16.7389 O   0  0  0  0  0  0  0  0  0  0  0  0
   13.7601   21.8949   13.6583 O   0  0  0  0  0  0  0  0  0  0  0  0
   12.3319   18.3372   16.0049 P   0  0  0  0  0  4  0  0  0  0  0  0
   11.5187   14.9413   10.6320 O   0  0  0  0  0  0  0  0  0  0  0  0
    9.2865   11.7307   12.5641 N   0  0  0  0  0  0  0  0  0  0  0  0
   11.5894   18.3770   16.7881 O   0  0  0  0  0  0  0  0  0  0  0  0
    8.3057   11.2499   13.3035 C   0  0  0  0  0  0  0  0  0  0  0  0
   15.7168   20.4017   17.2343 O   0  0  0  0  0  0  0  0  0  0  0  0
   12.1752   19.2308   15.0611 O   0  0  0  0  0  1  0  0  0  0  0  0
   14.3611   20.4748   15.2852 O   0  0  0  0  0  0  0  0  0  0  0  0
   13.3608   16.6385   13.8841 C   0  0  0  0  0  0  0  0  0  0  0  0
   14.3536   20.1519   16.6174 P   0  0  0  0  0  0  0  0  0  0  0  0
    8.9079   13.2676   14.8367 C   0  0  0  0  0  0  0  0  0  0  0  0
  3  2  1  0
  6  4  2  0
  7  2  1  0
  8  1  1  0
  8  2  1  0
  8  4  1  0
 10  3  1  0
 11  5  1  0
 13  3  1  0
 14  9  1  0
 15 11  1  0
 17  9  1  0
 19  9  1  0
 20 16  1  0
 20 18  1  0
 21  3  1  0
 22  1  1  0
 23 20  1  0
 24  5  2  0
 24 22  1  0
 25  9  1  0
 26 20  1  0
 27  9  1  0
 28 10  1  0
 28 16  1  0
 29 12  1  0
 29 18  1  0
 29 27  1  0
 30  1  1  0
 30  6  1  0
 30 11  2  0
M  RAD  2  20   2  26   2
M  END
>  <ID>  (1) 
conformer_0

$$$$
