
     RDKit          3D

 27 27  0  0  0  0  0  0  0  0999 V2000
    8.5876   11.4089   13.0780 C   0  0  0  0  0  0  0  0  0  0  0  0
   11.6713   14.2124   12.5916 C   0  0  2  0  0  0  0  0  0  0  0  0
   11.3703   15.5805   12.0301 C   0  0  1  0  0  0  0  0  0  0  0  0
    9.4302   12.9416   13.9666 C   0  0  0  0  0  0  0  0  0  0  0  0
    7.8108   11.2664   13.7912 N   0  0  0  0  0  0  0  0  0  0  0  0
   10.5004   13.8124   13.7599 N   0  0  0  0  0  0  0  0  0  0  0  0
   12.3960   16.3845   12.7881 C   0  0  1  0  0  0  0  0  0  0  0  0
   12.8527   14.5539   13.5249 O   0  0  0  0  0  0  0  0  0  0  0  0
   12.2246   18.9043   15.0934 O   0  0  0  0  0  1  0  0  0  0  0  0
   11.4533   18.1856   16.8826 O   0  0  0  0  0  0  0  0  0  0  0  0
    9.2217   14.0473   15.5447 N   0  0  0  0  0  0  0  0  0  0  0  0
   14.1990   22.3591   15.1684 P   0  0  0  0  0  4  0  0  0  0  0  0
   12.2613   18.1340   16.0018 P   0  0  2  0  0  4  0  0  0  0  0  0
   14.3749   20.7717   15.5689 O   0  0  0  0  0  1  0  0  0  0  0  0
   11.6939   17.2946   11.3569 O   0  0  0  0  0  0  0  0  0  0  0  0
   13.8962   22.6921   13.9408 O   0  0  0  0  0  0  0  0  0  0  0  0
    8.1457   12.3970   14.9281 C   0  0  0  0  0  0  0  0  0  0  0  0
   13.2442   20.6593   17.6469 O   0  0  0  0  0  0  0  0  0  0  0  0
   11.7206   14.8529   10.7197 O   0  0  0  0  0  0  0  0  0  0  0  0
   13.9892   22.9608   16.2372 O   0  0  0  0  0  0  0  0  0  0  0  0
   15.3800   20.1300   17.8756 O   0  0  0  0  0  0  0  0  0  0  0  0
   14.3053   20.1418   16.9681 P   0  0  0  0  0  0  0  0  0  0  0  0
   10.0731   14.3140   14.8032 C   0  0  0  0  0  0  0  0  0  0  0  0
   13.3224   16.5621   14.1006 C   0  0  0  0  0  0  0  0  0  0  0  0
   14.0054   18.5907   16.6495 O   0  0  0  0  0  0  0  0  0  0  0  0
   12.4036   16.9349   15.2384 O   0  0  0  0  0  0  0  0  0  0  0  0
    9.3138   11.5320   12.4383 N   0  0  0  0  0  0  0  0  0  0  0  0
  3  2  1  0
  4  1  2  0
  5  1  1  0
  6  2  1  0
  6  4  1  0
  7  3  1  0
  2  8  1  1
 13  9  1  6
 13 10  1  0
 14 12  1  0
  7 15  1  1
 16 12  1  0
 17  4  1  0
 17  5  2  0
  3 19  1  6
 20 12  1  0
 21 12  1  0
 22 18  1  0
 22 21  1  0
 23  6  1  0
 23 11  2  3
 24  7  1  0
 25 13  1  0
 25 22  1  0
 26 13  1  0
 26 24  1  0
 27  1  1  0
M  RAD  4   9   2  12   2  13   2  14   2
M  END
>  <ID>  (1) 
conformer_0

$$$$
