
     RDKit          3D

 29 30  0  0  0  0  0  0  0  0999 V2000
    7.7208   12.1347   14.8591 C   0  0  0  0  0  0  0  0  0  0  0  0
   11.6049   14.1192   12.5871 C   0  0  0  0  0  0  0  0  0  0  0  0
   11.8243   15.3468   12.1042 C   0  0  0  0  0  0  0  0  0  0  0  0
    8.5089   11.4686   13.1159 C   0  0  0  0  0  0  0  0  0  0  0  0
   12.6920   14.4870   13.7046 O   0  0  0  0  0  0  0  0  0  0  0  0
    7.4812   11.0257   13.9121 N   0  0  0  0  0  0  0  0  0  0  0  0
   14.5024   20.2454   17.3474 P   0  0  0  0  0  0  0  0  0  0  0  0
    9.1916   12.9237   13.9936 C   0  0  0  0  0  0  0  0  0  0  0  0
   12.5966   16.2060   12.6432 C   0  0  0  0  0  0  0  0  0  0  0  0
   12.3602   16.8826   15.2454 O   0  0  0  0  0  0  0  0  0  0  0  0
    9.0111   13.9849   15.4053 N   0  0  0  0  0  0  0  0  0  0  0  0
   11.4069   18.2281   16.9294 O   0  0  0  0  0  0  0  0  0  0  0  0
   14.1705   20.5927   15.8438 O   0  0  0  0  0  0  0  0  0  0  0  0
   10.4106   13.9054   13.7832 N   0  0  0  0  0  0  0  0  0  0  0  0
   13.4909   20.7995   18.1214 O   0  0  0  0  0  0  0  0  0  0  0  0
   14.2034   22.1868   14.8544 P   0  0  0  0  0  4  0  0  0  0  0  0
    9.1374   11.3617   12.3379 N   0  0  0  0  0  0  0  0  0  0  0  0
   13.4937   22.1793   13.7798 O   0  0  0  0  0  1  0  0  0  0  0  0
   15.6933   22.2156   15.0631 O   0  0  0  0  0  0  0  0  0  0  0  0
   11.9761   17.0993   11.3796 O   0  0  0  0  0  0  0  0  0  0  0  0
   12.4350   18.3075   16.0175 P   0  0  0  0  0  5  0  0  0  0  0  0
    6.6899   11.8647   15.9285 N   0  0  0  0  0  0  0  0  0  0  0  0
   15.3850   19.7297   18.2485 O   0  0  0  0  0  0  0  0  0  0  0  0
   10.0369   14.4700   14.7567 C   0  0  0  0  0  0  0  0  0  0  0  0
   13.7021   23.3467   15.8593 O   0  0  0  0  0  0  0  0  0  0  0  0
   12.0545   14.8717   10.6589 O   0  0  0  0  0  0  0  0  0  0  0  0
   13.2685   16.6873   13.8751 C   0  0  0  0  0  0  0  0  0  0  0  0
   12.1787   19.0531   15.1094 O   0  0  0  0  0  0  0  0  0  0  0  0
   13.9974   18.5190   16.6005 O   0  0  0  0  0  0  0  0  0  0  0  0
  3  2  1  0
  5  2  1  0
  6  1  1  0
  6  4  2  0
  8  1  1  0
  8  4  1  0
  9  3  1  0
 11  8  1  0
 13  7  1  0
 14  2  1  0
 14  8  1  0
 15  7  1  0
 16 13  1  0
 17  4  1  0
 18 16  1  0
 19 16  1  0
 20  9  1  0
 21 10  1  0
 21 12  1  0
 22  1  1  0
 23  7  1  0
 23 21  1  0
 24 11  2  0
 24 14  1  0
 25 16  1  0
 26  3  1  0
 27  9  1  0
 27 10  1  0
 28 21  1  0
 29 21  1  0
M  RAD  2  16   2  18   2
M  END
>  <ID>  (1) 
conformer_0

$$$$
