
     RDKit          3D

 31 32  0  0  0  0  0  0  0  0999 V2000
    8.6718   13.2133   14.9022 C   0  0  0  0  0  0  0  0  0  0  0  0
   11.5357   14.2534   12.5433 C   0  0  0  0  0  0  0  0  0  0  0  0
   11.3792   15.5825   12.1045 C   0  0  0  0  0  0  0  0  0  0  0  0
    9.4523   12.9465   13.7626 C   0  0  0  0  0  0  0  0  0  0  0  0
    7.0316   11.2457   14.4518 N   0  0  0  0  0  0  0  0  0  0  0  0
    9.0654   14.2479   15.6623 N   0  0  0  0  0  0  0  0  0  0  0  0
    7.4086   12.4029   15.3742 C   0  0  0  0  0  0  0  0  0  0  0  0
   12.7069   14.4758   13.5193 O   0  0  0  0  0  0  0  0  0  0  0  0
   10.3508   13.9395   13.8200 N   0  0  0  0  0  0  0  0  0  0  0  0
   12.2618   16.4787   12.6680 C   0  0  0  0  0  0  0  0  0  0  0  0
   11.9959   18.3835   16.7411 O   0  0  0  0  0  0  0  0  0  0  0  0
   12.8149   18.2337   15.9303 P   0  0  0  0  0  4  0  0  0  0  0  0
   11.5735   17.4303   11.4794 O   0  0  0  0  0  0  0  0  0  0  0  0
   15.1129   19.8608   18.0201 O   0  0  0  0  0  1  0  0  0  0  0  0
   13.1803   20.6083   17.6614 O   0  0  0  0  0  0  0  0  0  0  0  0
   14.5584   20.7371   15.7722 O   0  0  0  0  0  0  0  0  0  0  0  0
   12.7444   17.0518   14.9133 O   0  0  0  0  0  0  0  0  0  0  0  0
   15.8419   22.3618   15.0061 O   0  0  0  0  0  0  0  0  0  0  0  0
   14.4769   22.0445   14.9616 P   0  0  0  0  0  4  0  0  0  0  0  0
   11.7594   14.8178   10.7165 O   0  0  0  0  0  0  0  0  0  0  0  0
   13.8167   22.0047   13.7253 O   0  0  0  0  0  1  0  0  0  0  0  0
    6.8368   12.8671   16.3358 O   0  0  0  0  0  0  0  0  0  0  0  0
    8.2766   11.2655   13.2985 C   0  0  0  0  0  0  0  0  0  0  0  0
   13.9319   22.8176   16.4110 O   0  0  0  0  0  0  0  0  0  0  0  0
   13.3493   16.5610   13.6475 C   0  0  0  0  0  0  0  0  0  0  0  0
   14.2866   20.2602   16.9833 P   0  0  0  0  0  4  0  0  0  0  0  0
   14.4030   18.2251   16.5580 O   0  0  0  0  0  0  0  0  0  0  0  0
    9.6230   11.6765   12.8072 N   0  0  0  0  0  0  0  0  0  0  0  0
    8.6703   11.8414   13.3476 N   0  0  0  0  0  0  0  0  0  0  0  0
   12.9489   19.2569   15.0096 O   0  0  0  0  0  1  0  0  0  0  0  0
   10.1207   14.6911   14.8948 C   0  0  0  0  0  0  0  0  0  0  0  0
  3  2  1  0
  4  1  2  0
  6  1  1  0
  7  1  1  0
  7  5  1  0
  8  2  1  0
  9  2  1  0
  9  4  1  0
 10  3  1  0
 12 11  1  0
 13 10  1  0
 17 12  1  0
 19 16  1  0
 19 18  1  0
 20  3  1  0
 21 19  1  0
 22  7  2  0
 23  5  2  0
 24 19  1  0
 25 10  1  0
 25 17  1  0
 26 14  1  0
 26 15  1  0
 26 16  1  0
 27 12  1  0
 27 26  1  0
 29  4  1  0
 29 23  1  0
 29 28  1  0
 30 12  1  0
 31  6  2  0
 31  9  1  0
M  RAD  6  12   2  14   2  19   2  21   2  26   2  30   2
M  END
>  <ID>  (1) 
conformer_0

$$$$
