
     RDKit          3D

 20 19  0  0  0  0  0  0  0  0999 V2000
    8.8433   12.2253   13.7802 C   0  0  0  0  0  0  0  0  0  0  0  0
   11.6638   14.9667   12.5065 C   0  0  1  0  0  0  0  0  0  0  0  0
   12.0567   16.1448   12.4854 C   0  0  0  0  0  0  0  0  0  0  0  0
    9.9076   14.2329   14.7150 C   0  0  0  0  0  0  0  0  0  0  0  0
    9.3652   14.5674   15.7470 N   0  0  0  0  0  0  0  0  0  0  0  0
    7.5248   11.3196   14.1644 N   0  0  0  0  0  0  0  0  0  0  0  0
   13.0067   14.7488   13.6029 O   0  0  0  0  0  0  0  0  0  0  0  0
   13.5695   16.5882   13.9900 C   0  0  0  0  0  0  0  0  0  0  0  0
   10.5985   14.1808   13.9064 N   0  0  0  0  0  0  0  0  0  0  0  0
   12.0462   18.5808   16.7625 O   0  0  0  0  0  0  0  0  0  0  0  0
   13.3861   18.7362   16.3454 P   0  0  0  0  0  0  0  0  0  0  0  0
   11.2912   16.9723   11.3528 O   0  0  0  0  0  0  0  0  0  0  0  0
    8.3415   12.8612   15.0859 C   0  0  0  0  0  0  0  0  0  0  0  0
   13.4097   17.8274   15.5777 O   0  0  0  0  0  0  0  0  0  0  0  0
   14.8627   19.6985   16.9091 O   0  0  0  0  0  0  0  0  0  0  0  0
   13.8756   23.0067   15.9083 O   0  0  0  0  0  0  0  0  0  0  0  0
   13.8623   20.9283   14.7632 O   0  0  0  0  0  1  0  0  0  0  0  0
   14.1632   21.6308   15.7053 P   0  0  0  0  0  4  0  0  0  0  0  0
    9.3370   12.1323   13.0591 N   0  0  0  0  0  0  0  0  0  0  0  0
   13.0266   20.9102   17.4085 O   0  0  0  0  0  0  0  0  0  0  0  0
  2  3  1  1
  5  4  2  3
  6  1  2  3
  7  2  1  0
  8  7  1  0
  9  2  1  0
  9  4  1  0
 11 10  1  0
 12  3  1  0
 13  1  1  0
 13  4  1  0
 14  8  1  0
 14 11  1  0
 15 11  1  0
 18 15  1  0
 18 16  1  0
 18 17  1  0
 19  1  1  0
 20 18  1  0
M  RAD  2  17   2  18   2
M  END
>  <ID>  (1) 
conformer_0

$$$$
