
     RDKit          3D

 24 23  0  0  0  0  0  0  0  0999 V2000
   11.3003   14.3658   12.3468 C   0  0  0  0  0  0  0  0  0  0  0  0
    8.4764   11.6413   13.6353 C   0  0  0  0  0  0  0  0  0  0  0  0
   11.5700   15.6116   12.2125 C   0  0  0  0  0  0  0  0  0  0  0  0
   12.5514   16.3134   12.8757 C   0  0  2  0  0  0  0  0  0  0  0  0
   10.0562   14.5101   14.9411 C   0  0  0  0  0  0  0  0  0  0  0  0
    9.2616   14.2785   15.7493 N   0  0  0  0  0  0  0  0  0  0  0  0
   12.8807   14.8711   13.6147 O   0  0  0  0  0  0  0  0  0  0  0  0
    7.8701   11.5276   14.1330 N   0  0  0  0  0  0  0  0  0  0  0  0
   13.2428   20.5795   17.6386 O   0  0  0  0  0  0  0  0  0  0  0  0
   11.8493   18.1259   16.9708 O   0  0  0  0  0  0  0  0  0  0  0  0
   13.3943   18.9551   16.3988 P   0  0  0  0  0  5  0  0  0  0  0  0
   11.4956   17.2420   11.4490 O   0  0  0  0  0  0  0  0  0  0  0  0
    7.9283   12.6485   15.5117 C   0  0  0  0  0  0  0  0  0  0  0  0
   10.4406   14.0951   13.8867 N   0  0  0  0  0  0  0  0  0  0  0  0
   14.7604   18.8583   17.2576 O   0  0  0  0  0  0  0  0  0  0  0  0
   12.7480   18.2212   15.3598 O   0  0  0  0  0  0  0  0  0  0  0  0
   14.4499   20.5046   15.6889 O   0  0  0  0  0  1  0  0  0  0  0  0
   14.3814   21.8083   15.4367 P   0  0  0  0  0  4  0  0  0  0  0  0
   13.9473   22.9212   15.7970 O   0  0  0  0  0  0  0  0  0  0  0  0
   11.4718   14.9036   10.6476 O   0  0  0  0  0  0  0  0  0  0  0  0
   13.5887   16.7652   14.2111 C   0  0  0  0  0  0  0  0  0  0  0  0
    6.8830   12.3786   16.4172 N   0  0  0  0  0  0  0  0  0  0  0  0
   14.1601   21.6986   13.5103 O   0  0  0  0  0  0  0  0  0  0  0  0
    9.3642   13.1460   14.3316 C   0  0  0  0  0  0  0  0  0  0  0  0
  3  1  1  0
  4  3  1  0
  6  5  2  3
  4  7  1  6
  8  2  2  3
 11  9  1  0
 11 10  1  0
 12  3  1  0
 13  8  1  0
 14  1  1  0
 14  5  1  0
 15 11  1  0
 16 11  1  0
 18 15  1  0
 18 17  1  0
 19 18  1  0
 20  3  1  0
 21  4  1  0
 21 16  1  0
 22 13  1  0
 23 18  1  0
 24  2  1  0
 24 14  1  0
M  RAD  2  17   2  18   2
M  END
>  <ID>  (1) 
conformer_0

$$$$
