
     RDKit          3D

 28 27  0  0  0  0  0  0  0  0999 V2000
    7.8236   12.3696   15.1947 C   0  0  0  0  0  0  0  0  0  0  0  0
   11.5185   14.3774   12.7975 C   0  0  1  0  0  0  0  0  0  0  0  0
   11.5399   15.4022   12.1912 C   0  0  1  0  0  0  0  0  0  0  0  0
    9.1807   12.9953   14.3699 C   0  0  0  0  0  0  0  0  0  0  0  0
   12.7713   14.5684   13.7542 O   0  0  0  0  0  0  0  0  0  0  0  0
    7.4525   11.0548   14.0487 N   0  0  0  0  0  0  0  0  0  0  0  0
    9.0701   14.0503   15.7435 N   0  0  0  0  0  0  0  0  0  0  0  0
   15.3251   19.4622   17.7835 O   0  0  0  0  0  0  0  0  0  0  0  0
   13.4079   20.6163   17.6036 O   0  0  0  0  0  0  0  0  0  0  0  0
   10.3865   13.9788   14.0329 N   0  0  0  0  0  0  0  0  0  0  0  0
   11.8089   18.5395   16.8062 O   0  0  0  0  0  0  0  0  0  0  0  0
   14.4043   19.9778   16.9585 P   0  0  0  0  0  0  0  0  0  0  0  0
   13.5225   23.1297   15.3752 O   0  0  0  0  0  0  0  0  0  0  0  0
   12.4174   16.3665   12.8298 C   0  0  1  0  0  0  0  0  0  0  0  0
    9.9460   14.3958   14.9597 C   0  0  0  0  0  0  0  0  0  0  0  0
   14.0312   22.1752   14.6594 P   0  0  2  0  0  4  0  0  0  0  0  0
   11.6610   17.2255   11.3480 O   0  0  0  0  0  0  0  0  0  0  0  0
   12.5857   17.1168   15.1290 O   0  0  0  0  0  0  0  0  0  0  0  0
    6.7117   12.0693   16.0233 N   0  0  0  0  0  0  0  0  0  0  0  0
   14.6580   20.7544   15.5200 O   0  0  0  0  0  0  0  0  0  0  0  0
    8.4179   11.4505   13.3404 C   0  0  0  0  0  0  0  0  0  0  0  0
   14.2186   22.0988   13.5851 O   0  0  0  0  0  1  0  0  0  0  0  0
    9.2229   11.8697   12.8330 N   0  0  0  0  0  0  0  0  0  0  0  0
   12.5476   19.5527   14.6741 O   0  0  0  0  0  0  0  0  0  0  0  0
   11.1648   14.9894   10.9489 O   0  0  0  0  0  0  0  0  0  0  0  0
   13.4544   16.4628   14.2911 C   0  0  0  0  0  0  0  0  0  0  0  0
   12.6657   18.3836   15.8526 P   0  0  0  0  0  5  0  0  0  0  0  0
   14.0400   18.3721   16.4764 O   0  0  0  0  0  0  0  0  0  0  0  0
  3  2  1  0
  4  1  1  0
  2  5  1  1
  6  1  1  0
 10  2  1  0
 10  4  1  0
 12  8  1  0
 12  9  1  0
 14  3  1  0
 15  7  2  3
 15 10  1  0
 16 13  1  1
 14 17  1  1
 19  1  2  3
 20 12  1  0
 20 16  1  0
 21  6  1  0
 22 16  1  0
 23 21  3  0
  3 25  1  6
 26 14  1  0
 26 18  1  0
 27  8  1  0
 27 11  1  0
 27 18  1  0
 27 24  1  0
 28 27  1  0
M  RAD  2  16   2  22   2
M  END
>  <ID>  (1) 
conformer_0

$$$$
