
     RDKit          3D

 28 29  0  0  0  0  0  0  0  0999 V2000
   11.3559   14.1830   12.4691 C   0  0  1  0  0  0  0  0  0  0  0  0
    9.2291   12.9970   14.1815 C   0  0  1  0  0  0  0  0  0  0  0  0
   11.3352   15.5151   12.0315 C   0  0  1  0  0  0  0  0  0  0  0  0
    9.7635   14.4524   14.9225 C   0  0  0  0  0  0  0  0  0  0  0  0
    9.0290   14.2049   15.7036 N   0  0  0  0  0  0  0  0  0  0  0  0
    7.2987   11.0412   14.3158 N   0  0  0  0  0  0  0  0  0  0  0  0
   12.5423   14.4192   13.5218 O   0  0  0  0  0  0  0  0  0  0  0  0
   14.1689   19.7140   16.5142 P   0  0  0  0  0  0  0  0  0  0  0  0
   11.5487   18.1227   16.8727 O   0  0  0  0  0  0  0  0  0  0  0  0
   12.4385   16.1019   12.5960 C   0  0  1  0  0  0  0  0  0  0  0  0
   10.2458   13.8389   13.7622 N   0  0  0  0  0  0  0  0  0  0  0  0
    7.8906   12.5042   15.1807 C   0  0  0  0  0  3  0  0  0  0  0  0
    6.7594   12.2728   16.0728 N   0  0  0  0  0  0  0  0  0  0  0  0
   14.2652   22.1634   14.9689 P   0  0  0  0  0  4  0  0  0  0  0  0
   14.4061   20.3886   15.6058 O   0  0  0  0  0  0  0  0  0  0  0  0
   13.1648   20.3005   17.5058 O   0  0  0  0  0  0  0  0  0  0  0  0
   11.9421   17.1028   11.2985 O   0  0  0  0  0  0  0  0  0  0  0  0
   14.7372   18.6386   17.2236 O   0  0  0  0  0  0  0  0  0  0  0  0
   12.9010   17.2088   15.5500 O   0  0  0  0  0  0  0  0  0  0  0  0
   13.7505   23.0044   16.2206 O   0  0  0  0  0  0  0  0  0  0  0  0
   13.9671   21.8740   13.7524 O   0  0  0  0  0  1  0  0  0  0  0  0
   11.4235   14.8054   10.5847 O   0  0  0  0  0  0  0  0  0  0  0  0
    8.5190   11.4177   13.3008 C   0  0  0  0  0  0  0  0  0  0  0  0
    8.8749   11.7187   13.1215 N   0  0  0  0  0  0  0  0  0  0  0  0
   13.3849   16.4160   13.9101 C   0  0  0  0  0  0  0  0  0  0  0  0
   12.2172   19.1058   15.0902 O   0  0  0  0  0  1  0  0  0  0  0  0
   12.3231   18.0539   16.0612 P   0  0  1  0  0  4  0  0  0  0  0  0
   15.6083   22.6907   15.2682 O   0  0  0  0  0  0  0  0  0  0  0  0
  3  1  1  0
  4  2  1  0
  5  4  2  3
  1  7  1  1
 10  3  1  0
 11  1  1  0
 11  2  1  0
 11  4  1  0
 12  2  1  0
 12  6  1  0
 13 12  1  0
 15  8  1  0
 15 14  1  0
 16  8  1  0
 10 17  1  1
 18  8  1  0
 20 14  1  0
 21 14  1  0
  3 22  1  6
 23  6  2  0
  2 24  1  1
 24 23  1  0
 25 10  1  0
 25 19  1  0
 27  9  1  1
 27 18  1  0
 27 19  1  0
 27 26  1  0
 28 14  1  0
M  RAD  5  12   2  14   2  21   2  26   2  27   2
M  END
>  <ID>  (1) 
conformer_0

$$$$
