
     RDKit          3D

 29 30  0  0  0  0  0  0  0  0999 V2000
    9.4706   13.3539   14.1427 C   0  0  0  0  0  0  0  0  0  0  0  0
   11.6078   15.7362   11.9556 C   0  0  0  0  0  0  0  0  0  0  0  0
   11.4458   14.4722   12.3997 C   0  0  1  0  0  0  0  0  0  0  0  0
    9.9541   14.7472   15.0293 C   0  0  0  0  0  0  0  0  0  0  0  0
    9.2470   14.3657   15.7784 N   0  0  0  0  0  0  0  0  0  0  0  0
    7.3036   11.2232   14.1323 N   0  0  0  0  0  0  0  0  0  0  0  0
   12.5436   14.7503   13.5374 O   0  0  0  0  0  0  0  0  0  0  0  0
   10.4502   14.1571   13.7920 N   0  0  0  0  0  0  0  0  0  0  0  0
   12.6664   16.3521   12.9149 C   0  0  2  0  0  0  0  0  0  0  0  0
   12.5281   18.4751   15.9257 P   0  0  0  0  0  0  0  0  0  0  0  0
   13.1953   20.4036   17.3603 O   0  0  0  0  0  0  0  0  0  0  0  0
   15.2906   19.5671   17.8463 O   0  0  0  0  0  0  0  0  0  0  0  0
   14.1255   21.9148   14.6146 P   0  0  0  0  0  4  0  0  0  0  0  0
   12.5924   17.2211   15.3296 O   0  0  0  0  0  0  0  0  0  0  0  0
   11.6840   18.4980   16.8812 O   0  0  0  0  0  0  0  0  0  0  0  0
   11.6473   17.2141   11.3180 O   0  0  0  0  0  0  0  0  0  0  0  0
    8.1362   12.7037   15.1201 C   0  0  0  0  0  0  0  0  0  0  0  0
   13.2734   22.7402   15.3180 O   0  0  0  0  0  0  0  0  0  0  0  0
   14.1558   21.8990   13.4776 O   0  0  0  0  0  1  0  0  0  0  0  0
    6.7765   11.9861   15.9284 N   0  0  0  0  0  0  0  0  0  0  0  0
   14.5369   19.9348   15.6166 O   0  0  0  0  0  0  0  0  0  0  0  0
    8.4774   11.7285   13.4350 C   0  0  0  0  0  0  0  0  0  0  0  0
   11.8492   14.9995   10.6446 O   0  0  0  0  0  0  0  0  0  0  0  0
    8.9838   11.6394   12.2690 N   0  0  0  0  0  0  0  0  0  0  0  0
   13.2726   16.7710   14.2880 C   0  0  2  0  0  0  0  0  0  0  0  0
   15.2576   22.2803   15.6996 O   0  0  0  0  0  0  0  0  0  0  0  0
   14.5306   19.9832   16.9358 P   0  0  0  0  0  0  0  0  0  0  0  0
   12.3619   19.1027   14.9217 O   0  0  0  0  0  0  0  0  0  0  0  0
    8.9885   11.8919   13.2668 N   0  0  0  0  0  0  0  0  0  0  0  0
  3  2  1  0
  4  1  1  0
  5  4  2  3
  7  3  1  0
  8  1  1  0
  3  8  1  1
  8  4  1  0
  9  2  1  0
  9  7  1  1
 12 10  1  0
 15 10  1  0
 16  2  1  0
 17  1  1  0
 18 13  1  0
 19 13  1  0
 20 17  1  0
 21 13  1  0
 22  6  1  0
 23  2  1  0
 25  9  1  0
 25 14  1  1
 26 13  1  0
 27 11  1  0
 27 12  1  0
 27 21  1  0
 28 10  1  0
 28 25  1  0
 29  1  1  0
 29 22  1  0
 29 24  1  0
M  RAD  2  13   2  19   2
M  END
>  <ID>  (1) 
conformer_0

$$$$
