
     RDKit          3D

 29 31  0  0  0  0  0  0  0  0999 V2000
   11.2391   15.4211   12.0068 C   0  0  2  0  0  0  0  0  0  0  0  0
    9.3406   13.1579   13.9849 C   0  0  0  0  0  0  0  0  0  0  0  0
   11.6466   14.1703   12.5416 C   0  0  1  0  0  0  0  0  0  0  0  0
    9.8964   14.5314   14.8275 C   0  0  0  0  0  0  0  0  0  0  0  0
    9.0485   14.2835   15.5079 N   0  0  0  0  0  0  0  0  0  0  0  0
   12.8091   14.8670   13.6365 O   0  0  0  0  0  0  0  0  0  0  0  0
    7.7220   11.2717   13.8361 N   0  0  0  0  0  0  0  0  0  0  0  0
   12.6763   17.2463   15.3491 O   0  0  0  0  0  0  0  0  0  0  0  0
   13.2868   20.5163   17.6713 O   0  0  0  0  0  0  0  0  0  0  0  0
   10.3890   14.0878   13.6767 N   0  0  0  0  0  0  0  0  0  0  0  0
   14.2872   19.9392   16.8746 P   0  0  0  0  0  0  0  0  0  0  0  0
   14.9935   19.0725   17.5655 O   0  0  0  0  0  0  0  0  0  0  0  0
   11.6521   18.3807   16.9093 O   0  0  0  0  0  0  0  0  0  0  0  0
    6.8002   12.0340   15.8092 N   0  0  0  0  0  0  0  0  0  0  0  0
    7.9868   12.5275   14.9626 C   0  0  0  0  0  0  0  0  0  0  0  0
   14.3970   22.0723   14.6744 P   0  0  0  0  0  4  0  0  0  0  0  0
   12.0251   17.0629   12.9190 C   0  0  2  0  0  0  0  0  0  0  0  0
   14.1264   22.1814   13.5640 O   0  0  0  0  0  1  0  0  0  0  0  0
   11.6357   17.2851   11.4277 O   0  0  0  0  0  0  0  0  0  0  0  0
   13.5288   22.8480   15.7439 O   0  0  0  0  0  0  0  0  0  0  0  0
   12.1055   14.6959   10.7747 O   0  0  0  0  0  0  0  0  0  0  0  0
   14.5952   20.4368   15.5111 O   0  0  0  0  0  0  0  0  0  0  0  0
   15.8262   22.5231   15.1393 O   0  0  0  0  0  0  0  0  0  0  0  0
    9.4826   12.1493   12.4829 N   0  0  0  0  0  0  0  0  0  0  0  0
    8.6344   11.5833   13.0734 C   0  0  0  0  0  0  0  0  0  0  0  0
   12.4141   18.2627   16.0604 P   0  0  2  0  0  4  0  0  0  0  0  0
   13.3234   17.1988   13.9888 C   0  0  0  0  0  0  0  0  0  0  0  0
   12.7944   19.0865   15.3733 O   0  0  0  0  0  1  0  0  0  0  0  0
   12.8518   15.7968   12.6857 C   0  0  2  0  0  0  0  0  0  0  0  0
  3  1  1  0
  4  2  1  0
  5  4  2  3
  6  3  1  0
 10  2  1  0
  3 10  1  1
 10  4  1  0
 11  9  1  0
 12 11  1  0
 15  2  1  0
 15  7  2  0
 15 14  1  0
 18 16  1  0
 17 19  1  6
 20 16  1  0
  1 21  1  6
 22 11  1  0
 22 16  1  0
 23 16  1  0
 24  2  1  0
 25  7  1  0
 25 24  1  0
 26  8  1  0
 26 12  1  0
 26 13  1  1
 27  8  1  0
 27 17  1  0
 28 26  1  0
 29  1  1  0
 29  6  1  1
 29 17  1  0
M  RAD  4  16   2  18   2  26   2  28   2
M  END
>  <ID>  (1) 
conformer_0

$$$$
