
     RDKit          3D

 25 26  0  0  0  0  0  0  0  0999 V2000
   11.2312   14.1963   12.4442 C   0  0  0  0  0  0  0  0  0  0  0  0
    8.6365   11.5801   13.1365 C   0  0  0  0  0  0  0  0  0  0  0  0
   11.4173   15.5301   12.0783 C   0  0  0  0  0  0  0  0  0  0  0  0
    9.9305   14.5205   15.0253 C   0  0  0  0  0  0  0  0  0  0  0  0
    8.9772   14.0384   15.6782 N   0  0  0  0  0  0  0  0  0  0  0  0
    7.6552   11.3676   14.2064 N   0  0  0  0  0  0  0  0  0  0  0  0
   12.4826   14.5839   13.6848 O   0  0  0  0  0  0  0  0  0  0  0  0
   12.5991   16.0155   12.9391 C   0  0  0  0  0  0  0  0  0  0  0  0
   10.3072   13.8996   13.9104 N   0  0  0  0  0  0  0  0  0  0  0  0
   14.6169   20.4968   15.6648 O   0  0  0  0  0  1  0  0  0  0  0  0
   13.2197   20.5004   17.6673 O   0  0  0  0  0  0  0  0  0  0  0  0
   13.3825   19.0109   16.4447 P   0  0  0  0  0  5  0  0  0  0  0  0
   11.8324   18.4538   16.8132 O   0  0  0  0  0  0  0  0  0  0  0  0
   11.4622   17.0335   11.4794 O   0  0  0  0  0  0  0  0  0  0  0  0
   13.7865   22.7883   16.2770 O   0  0  0  0  0  0  0  0  0  0  0  0
   14.9392   19.0324   17.3923 O   0  0  0  0  0  0  0  0  0  0  0  0
   12.8288   18.3338   15.2412 O   0  0  0  0  0  0  0  0  0  0  0  0
    6.6942   12.0193   15.9593 N   0  0  0  0  0  0  0  0  0  0  0  0
    9.4268   13.1927   14.1393 C   0  0  0  0  0  3  0  0  0  0  0  0
   14.4738   21.6263   15.6187 P   0  0  0  0  0  4  0  0  0  0  0  0
   11.5531   14.8243   10.7394 O   0  0  0  0  0  0  0  0  0  0  0  0
   13.8358   22.1335   14.1336 O   0  0  0  0  0  0  0  0  0  0  0  0
   13.5314   16.7383   14.2452 C   0  0  0  0  0  0  0  0  0  0  0  0
    9.2199   12.0278   12.5285 N   0  0  0  0  0  0  0  0  0  0  0  0
    8.0353   12.5424   15.1159 C   0  0  0  0  0  0  0  0  0  0  0  0
  3  1  1  0
  5  4  2  0
  6  2  1  0
  7  1  1  0
  8  3  1  0
  8  7  1  0
  9  1  1  0
  9  4  1  0
 12 11  1  0
 13 12  1  0
 14  3  1  0
 16 12  1  0
 17 12  1  0
 19  9  1  0
 20 10  1  0
 20 15  1  0
 20 16  1  0
 21  3  1  0
 22 20  1  0
 23  8  1  0
 23 17  1  0
 24  2  3  0
 25  5  1  0
 25  6  1  0
 25 18  1  0
 25 19  1  0
M  RAD  3  10   2  19   2  20   2
M  END
>  <ID>  (1) 
conformer_0

$$$$
