
     RDKit          3D

 28 29  0  0  0  0  0  0  0  0999 V2000
   11.7746   14.5877   12.5715 C   0  0  0  0  0  0  0  0  0  0  0  0
    9.2057   12.8583   14.0982 C   0  0  0  0  0  0  0  0  0  0  0  0
   11.5025   15.8114   12.1457 C   0  0  0  0  0  0  0  0  0  0  0  0
    9.8871   14.2519   14.6463 C   0  0  0  0  0  0  0  0  0  0  0  0
    8.9813   13.7890   15.3810 N   0  0  0  0  0  0  0  0  0  0  0  0
    7.5311   10.9816   13.8724 N   0  0  0  0  0  0  0  0  0  0  0  0
   12.8445   15.1211   13.7431 O   0  0  0  0  0  0  0  0  0  0  0  0
   14.5467   22.5477   15.3407 P   0  0  0  0  0  4  0  0  0  0  0  0
   13.0962   20.4210   17.6592 O   0  0  0  0  0  0  0  0  0  0  0  0
    7.8459   12.1862   14.8940 C   0  0  0  0  0  3  0  0  0  0  0  0
   12.4556   16.7704   12.7106 C   0  0  0  0  0  0  0  0  0  0  0  0
   11.6111   18.4083   16.7555 O   0  0  0  0  0  0  0  0  0  0  0  0
   14.1267   20.1178   16.7575 P   0  0  0  0  0  0  0  0  0  0  0  0
    8.4054   10.4581   12.1176 N   0  0  0  0  0  0  0  0  0  0  0  0
   10.3605   14.0869   13.8215 N   0  0  0  0  0  0  0  0  0  0  0  0
   12.7525   17.6228   15.4025 O   0  0  0  0  0  0  0  0  0  0  0  0
   14.6433   18.6762   17.2070 O   0  0  0  0  0  0  0  0  0  0  0  0
   13.6265   23.2246   16.2022 O   0  0  0  0  0  0  0  0  0  0  0  0
   14.2344   20.3097   15.5511 O   0  0  0  0  0  0  0  0  0  0  0  0
   11.7047   17.3637   11.2354 O   0  0  0  0  0  0  0  0  0  0  0  0
   15.9735   22.7197   15.5018 O   0  0  0  0  0  0  0  0  0  0  0  0
   14.1024   22.3093   14.0488 O   0  0  0  0  0  1  0  0  0  0  0  0
   11.4674   15.1207   10.8143 O   0  0  0  0  0  0  0  0  0  0  0  0
    8.6333   11.4890   13.1433 C   0  0  0  0  0  0  0  0  0  0  0  0
    6.6745   11.8663   15.8068 N   0  0  0  0  0  0  0  0  0  0  0  0
   13.3124   16.9739   13.8311 C   0  0  0  0  0  0  0  0  0  0  0  0
    9.7215   12.1305   12.9751 N   0  0  0  0  0  0  0  0  0  0  0  0
   12.5398   18.0517   16.1218 P   0  0  0  0  0  0  0  0  0  0  0  0
  3  1  1  0
  4  2  1  0
  5  2  1  0
  5  4  2  0
  7  1  1  0
 10  2  1  0
 10  6  1  0
 11  3  1  0
 13  9  1  0
 15  1  1  0
 15  4  1  0
 17 13  1  0
 18  8  1  0
 19  8  1  0
 19 13  1  0
 20 11  1  0
 21  8  1  0
 22  8  1  0
 23  3  1  0
 24  6  2  0
 24 14  1  0
 25 10  1  0
 26 11  1  0
 26 16  1  0
 27  2  1  0
 27 24  1  0
 28 12  1  0
 28 16  1  0
 28 17  1  0
M  RAD  3   8   2  10   2  22   2
M  END
>  <ID>  (1) 
conformer_0

$$$$
