
     RDKit          3D

 28 30  0  0  0  0  0  0  0  0999 V2000
    8.6312   11.5793   13.2856 C   0  0  0  0  0  0  0  0  0  0  0  0
   11.4038   14.2701   12.7309 C   0  0  1  0  0  0  0  0  0  0  0  0
   11.3647   15.5397   12.0397 C   0  0  1  0  0  0  0  0  0  0  0  0
    9.9433   14.5579   14.9237 C   0  0  0  0  0  0  0  0  0  0  0  0
    9.1865   14.2742   15.6992 N   0  0  0  0  0  0  0  0  0  0  0  0
    7.7707   11.2009   13.9963 N   0  0  0  0  0  0  0  0  0  0  0  0
   12.6158   14.8883   13.5747 O   0  0  0  0  0  0  0  0  0  0  0  0
   10.4406   14.0217   13.8353 N   0  0  0  0  0  0  0  0  0  0  0  0
   12.5018   18.5386   15.7636 P   0  0  2  0  0  4  0  0  0  0  0  0
   13.4174   20.5356   17.5981 O   0  0  0  0  0  0  0  0  0  0  0  0
   15.0711   19.1156   17.5027 O   0  0  0  0  0  0  0  0  0  0  0  0
    8.0126   12.5187   15.1553 C   0  0  2  0  0  0  0  0  0  0  0  0
   12.0995   17.8784   14.9230 O   0  0  0  0  0  0  0  0  0  0  0  0
   13.2073   19.4808   15.3282 O   0  0  0  0  0  1  0  0  0  0  0  0
   11.3626   17.1284   11.3724 O   0  0  0  0  0  0  0  0  0  0  0  0
   11.9832   18.4207   16.9497 O   0  0  0  0  0  0  0  0  0  0  0  0
   14.3254   21.9545   13.5647 O   0  0  0  0  0  1  0  0  0  0  0  0
   14.3642   21.9196   14.7704 P   0  0  0  0  0  4  0  0  0  0  0  0
   13.4153   22.7588   15.7440 O   0  0  0  0  0  0  0  0  0  0  0  0
    9.0475   11.3229   12.3101 N   0  0  0  0  0  0  0  0  0  0  0  0
    6.5969   12.0605   15.8161 N   0  0  0  0  0  0  0  0  0  0  0  0
   12.2988   16.3451   12.5140 C   0  0  1  0  0  0  0  0  0  0  0  0
   11.5445   14.8995   10.6903 O   0  0  0  0  0  0  0  0  0  0  0  0
    9.3607   13.0488   14.2304 C   0  0  2  0  0  0  0  0  0  0  0  0
   15.5979   22.8847   15.4157 O   0  0  0  0  0  0  0  0  0  0  0  0
   14.4057   20.0058   16.9069 P   0  0  0  0  0  0  0  0  0  0  0  0
   15.1344   20.7075   15.8139 O   0  0  0  0  0  0  0  0  0  0  0  0
   13.0501   16.8577   13.7133 C   0  0  0  0  0  0  0  0  0  0  0  0
  3  2  1  0
  5  4  2  3
  6  1  2  0
  7  2  1  0
  2  8  1  1
  8  4  1  0
 11  9  1  0
 12  6  1  0
 13  9  1  0
  9 14  1  6
 16  9  1  0
 18 17  1  0
 19 18  1  0
 20  1  1  0
 12 21  1  6
 22  3  1  0
 22  7  1  0
 22 15  1  1
  3 23  1  6
 24  1  1  0
 24  4  1  0
 24  8  1  1
 24 12  1  0
 25 18  1  0
 26 10  1  0
 26 11  1  0
 27 18  1  0
 27 26  1  0
 28 13  1  0
 28 22  1  0
M  RAD  4   9   2  14   2  17   2  18   2
M  END
>  <ID>  (1) 
conformer_0

$$$$
