
     RDKit          3D

 27 27  0  0  0  0  0  0  0  0999 V2000
    8.3689   11.3176   13.2558 C   0  0  0  0  0  0  0  0  0  0  0  0
   11.1720   15.5232   11.9567 C   0  0  0  0  0  0  0  0  0  0  0  0
   12.2515   16.3602   12.4449 C   0  0  0  0  0  0  0  0  0  0  0  0
    9.9885   14.3774   14.8908 C   0  0  0  0  0  0  0  0  0  0  0  0
    9.0320   13.9810   15.6859 N   0  0  0  0  0  0  0  0  0  0  0  0
    7.3767   11.2767   14.3333 N   0  0  0  0  0  0  0  0  0  0  0  0
   12.6857   14.7371   13.5392 O   0  0  0  0  0  0  0  0  0  0  0  0
   10.3680   13.8857   13.8389 N   0  0  0  0  0  0  0  0  0  0  0  0
   14.5380   22.2934   15.1376 P   0  0  0  0  0  4  0  0  0  0  0  0
   11.7782   18.2450   16.7863 O   0  0  0  0  0  0  0  0  0  0  0  0
   13.3562   16.5255   13.7812 C   0  0  0  0  0  0  0  0  0  0  0  0
    6.5348   12.4151   16.1507 N   0  0  0  0  0  0  0  0  0  0  0  0
   12.5542   17.8447   15.9954 P   0  0  0  0  0  0  0  0  0  0  0  0
   12.6871   17.0890   15.2493 O   0  0  0  0  0  0  0  0  0  0  0  0
    7.7716   12.4545   15.2165 C   0  0  0  0  0  0  0  0  0  0  0  0
   13.2229   19.2646   15.1998 O   0  0  0  0  0  0  0  0  0  0  0  0
   11.7499   17.3945   11.3822 O   0  0  0  0  0  0  0  0  0  0  0  0
   13.1562   20.4657   17.2952 O   0  0  0  0  0  0  0  0  0  0  0  0
   14.1056   22.9427   16.0747 O   0  0  0  0  0  0  0  0  0  0  0  0
   13.7625   21.8025   13.9198 O   0  0  0  0  0  1  0  0  0  0  0  0
   10.9738   14.8176   10.7086 O   0  0  0  0  0  0  0  0  0  0  0  0
    8.9959   11.7949   12.9120 N   0  0  0  0  0  0  0  0  0  0  0  0
   15.5403   21.2301   15.6976 O   0  0  0  0  0  0  0  0  0  0  0  0
    9.1821   12.9833   14.2170 C   0  0  0  0  0  0  0  0  0  0  0  0
   14.8591   19.2511   16.9080 O   0  0  0  0  0  1  0  0  0  0  0  0
   11.3100   14.2906   12.5788 C   0  0  0  0  0  0  0  0  0  0  0  0
   14.1878   19.9667   16.2761 P   0  0  0  0  0  4  0  0  0  0  0  0
  3  2  1  0
  5  4  1  0
  6  1  2  0
  8  4  1  0
 11  3  1  0
 13 10  1  0
 14 11  1  0
 14 13  1  0
 15  6  1  0
 15 12  1  0
 16 13  1  0
 17  3  1  0
 19  9  1  0
 20  9  1  0
 21  2  1  0
 22  1  1  0
 23  9  1  0
 24  8  1  0
 24 15  2  0
 24 22  1  0
 26  2  1  0
 26  7  1  0
 26  8  1  0
 27 16  1  0
 27 18  1  0
 27 23  1  0
 27 25  1  0
M  RAD  4   9   2  20   2  25   2  27   2
M  END
>  <ID>  (1) 
conformer_0

$$$$
