
     RDKit          3D

 28 29  0  0  0  0  0  0  0  0999 V2000
   11.4349   14.5459   12.6323 C   0  0  1  0  0  0  0  0  0  0  0  0
    8.3871   11.4097   13.2077 C   0  0  0  0  0  0  0  0  0  0  0  0
   11.4660   15.8048   12.2637 C   0  0  0  0  0  0  0  0  0  0  0  0
    9.9583   14.4984   14.8863 C   0  0  0  0  0  0  0  0  0  0  0  0
    9.1667   14.2345   15.6298 N   0  0  0  0  0  0  0  0  0  0  0  0
    7.2268   11.0067   14.1256 N   0  0  0  0  0  0  0  0  0  0  0  0
   12.7230   14.8178   13.5949 O   0  0  0  0  0  0  0  0  0  0  0  0
   10.3948   14.1702   13.8439 N   0  0  0  0  0  0  0  0  0  0  0  0
   11.8366   18.2027   16.8367 O   0  0  0  0  0  0  0  0  0  0  0  0
    6.8676   12.1330   16.0137 N   0  0  0  0  0  0  0  0  0  0  0  0
   15.0237   19.2298   17.5079 O   0  0  0  0  0  0  0  0  0  0  0  0
   12.5301   16.4129   13.0539 C   0  0  2  0  0  0  0  0  0  0  0  0
   14.4417   20.0355   16.7749 P   0  0  0  0  0  0  0  0  0  0  0  0
    7.8860   12.4021   15.0237 C   0  0  0  0  0  0  0  0  0  0  0  0
   13.8376   21.6708   13.3858 O   0  0  0  0  0  1  0  0  0  0  0  0
   14.3274   21.9350   14.4368 P   0  0  0  0  0  4  0  0  0  0  0  0
   11.5087   17.4428   11.5872 O   0  0  0  0  0  0  0  0  0  0  0  0
   12.6568   18.0149   15.2520 O   0  0  0  0  0  0  0  0  0  0  0  0
   15.8627   22.0874   14.8039 O   0  0  0  0  0  0  0  0  0  0  0  0
   13.1957   20.7081   17.2477 O   0  0  0  0  0  0  0  0  0  0  0  0
   14.1192   20.1234   15.4318 O   0  0  0  0  0  0  0  0  0  0  0  0
   13.7825   22.9707   15.4354 O   0  0  0  0  0  0  0  0  0  0  0  0
    9.1898   13.0623   14.1036 C   0  0  0  0  0  0  0  0  0  0  0  0
   12.5166   18.2769   16.1300 P   0  0  0  0  0  0  0  0  0  0  0  0
   13.5102   16.8498   14.1193 C   0  0  0  0  0  0  0  0  0  0  0  0
    9.4825   12.2071   12.4419 N   0  0  0  0  0  0  0  0  0  0  0  0
    8.8953   11.8138   13.0427 N   0  0  0  0  0  0  0  0  0  0  0  0
   11.1452   15.5681   11.0129 O   0  0  0  0  0  0  0  0  0  0  0  0
  3  1  1  0
  5  4  2  3
  6  2  2  0
  7  1  1  0
  1  8  1  1
  8  4  1  0
 12  3  1  0
 12  7  1  0
 13 11  1  0
 14  6  1  0
 14 10  1  0
 16 15  1  0
 17  3  1  0
 19 16  1  0
 20 13  1  0
 21 13  1  0
 21 16  1  0
 22 16  1  0
 23  8  1  0
 23 14  2  0
 24  9  1  0
 24 11  1  0
 24 18  1  0
 12 25  1  1
 25 18  1  0
 27  2  1  0
 27 23  1  0
 27 26  1  0
 28  3  1  0
M  RAD  2  15   2  16   2
M  END
>  <ID>  (1) 
conformer_0

$$$$
