
     RDKit          3D

 31 32  0  0  0  0  0  0  0  0999 V2000
   11.3359   14.6143   12.6117 C   0  0  2  0  0  0  0  0  0  0  0  0
    8.3937   11.2334   13.3722 C   0  0  0  0  0  0  0  0  0  0  0  0
   11.0543   16.0557   12.0959 C   0  0  2  0  0  0  0  0  0  0  0  0
   10.2514   14.9451   14.9314 C   0  0  0  0  0  0  0  0  0  0  0  0
    9.1509   14.1887   15.6482 N   0  0  0  0  0  0  0  0  0  0  0  0
    7.5107   11.2686   14.1821 N   0  0  0  0  0  0  0  0  0  0  0  0
   12.8098   15.1009   13.6707 O   0  0  0  0  0  0  0  0  0  0  0  0
    9.7790   12.5898   13.0948 N   0  0  0  0  0  0  0  0  0  0  0  0
   13.3088   20.4552   17.5294 O   0  0  0  0  0  0  0  0  0  0  0  0
   12.7017   18.2193   15.9574 P   0  0  0  0  0  0  0  0  0  0  0  0
   10.3379   14.4148   13.9509 N   0  0  0  0  0  0  0  0  0  0  0  0
   15.2254   19.5647   18.0076 O   0  0  0  0  0  1  0  0  0  0  0  0
   11.9030   15.0506   10.8478 O   0  0  0  0  0  0  0  0  0  0  0  0
   11.9337   18.4034   16.7893 O   0  0  0  0  0  0  0  0  0  0  0  0
   13.7805   21.8210   13.7245 O   0  0  0  0  0  1  0  0  0  0  0  0
   12.5026   17.3063   12.6547 C   0  0  2  0  0  0  0  0  0  0  0  0
   12.5933   17.7209   14.8804 O   0  0  0  0  0  0  0  0  0  0  0  0
    6.8077   11.9680   15.9330 N   0  0  0  0  0  0  0  0  0  0  0  0
    7.6102   12.2031   15.1920 C   0  0  0  0  0  0  0  0  0  0  0  0
   14.1833   21.9416   14.9975 P   0  0  0  0  0  4  0  0  0  0  0  0
   13.5228   22.8503   15.9044 O   0  0  0  0  0  0  0  0  0  0  0  0
   11.7367   17.5219   11.2144 O   0  0  0  0  0  0  0  0  0  0  0  0
   14.1896   20.1395   15.3085 O   0  0  0  0  0  0  0  0  0  0  0  0
   15.6349   22.1120   15.5934 O   0  0  0  0  0  0  0  0  0  0  0  0
    9.5136   12.9592   13.8265 C   0  0  0  0  0  0  0  0  0  0  0  0
   13.6841   17.0000   13.9580 C   0  0  0  0  0  0  0  0  0  0  0  0
   14.3988   19.9230   17.0520 P   0  0  2  0  0  4  0  0  0  0  0  0
   14.2903   18.1858   16.5664 O   0  0  0  0  0  0  0  0  0  0  0  0
    8.7080   10.8665   12.7388 N   0  0  0  0  0  0  0  0  0  0  0  0
   12.7686   15.6974   12.5316 C   0  0  2  0  0  0  0  0  0  0  0  0
    8.9261   13.3891   15.0362 C   0  0  0  0  0  0  0  0  0  0  0  0
  3  1  1  0
  5  4  2  0
  6  2  2  3
  1 11  1  1
 11  4  1  0
  3 13  1  6
 14 10  1  0
 17 10  1  0
 19  6  1  0
 19 18  2  3
 20 15  1  0
 21 20  1  0
 16 22  1  6
 23 20  1  0
 24 20  1  0
 25  8  1  0
 25 11  1  0
 26 16  1  0
 26 17  1  0
 27  9  1  1
 27 12  1  0
 27 23  1  0
 28 10  1  0
 28 27  1  0
 29  2  1  0
 30  1  1  0
 30  3  1  0
 30  7  1  1
 30 16  1  0
 31  5  1  0
 31 19  1  0
 31 25  2  0
M  RAD  4  12   2  15   2  20   2  27   2
M  END
>  <ID>  (1) 
conformer_0

$$$$
