
     RDKit          3D

 27 27  0  0  0  0  0  0  0  0999 V2000
   12.3658   16.8037   12.9307 C   0  0  0  0  0  0  0  0  0  0  0  0
    8.5796   11.4639   13.1984 C   0  0  0  0  0  0  0  0  0  0  0  0
   11.4894   15.9005   12.3094 C   0  0  0  0  0  0  0  0  0  0  0  0
    8.0155   12.4689   14.9800 C   0  0  0  0  0  0  0  0  0  0  0  0
    9.2672   14.3347   15.6988 N   0  0  0  0  0  0  0  0  0  0  0  0
    7.4432   10.9778   13.9987 N   0  0  0  0  0  0  0  0  0  0  0  0
   12.8754   14.9398   13.6056 O   0  0  0  0  0  0  0  0  0  0  0  0
   10.5363   14.1897   13.9125 N   0  0  0  0  0  0  0  0  0  0  0  0
   13.3516   17.1320   13.9813 C   0  0  0  0  0  0  0  0  0  0  0  0
   13.3616   20.7058   17.7018 O   0  0  0  0  0  0  0  0  0  0  0  0
   14.3891   20.2584   16.8893 P   0  0  0  0  0  0  0  0  0  0  0  0
    9.3601   13.0998   14.2334 C   0  0  0  0  0  0  0  0  0  0  0  0
   14.9314   19.1372   17.4624 O   0  0  0  0  0  0  0  0  0  0  0  0
   11.9120   18.5245   16.8850 O   0  0  0  0  0  0  0  0  0  0  0  0
   14.6173   22.4971   14.7866 P   0  0  0  0  0  4  0  0  0  0  0  0
   13.0528   18.0720   15.5201 O   0  0  0  0  0  0  0  0  0  0  0  0
   13.4238   22.8721   15.3676 O   0  0  0  0  0  0  0  0  0  0  0  0
   11.1088   17.5076   11.6933 O   0  0  0  0  0  0  0  0  0  0  0  0
   14.6653   20.6633   15.5825 O   0  0  0  0  0  0  0  0  0  0  0  0
   14.5397   22.5966   13.4444 O   0  0  0  0  0  1  0  0  0  0  0  0
   16.0428   23.0842   15.1901 O   0  0  0  0  0  0  0  0  0  0  0  0
   11.3607   15.3152   10.8998 O   0  0  0  0  0  0  0  0  0  0  0  0
    9.2797   12.1551   12.9027 N   0  0  0  0  0  0  0  0  0  0  0  0
   10.0661   14.5954   14.9869 C   0  0  0  0  0  0  0  0  0  0  0  0
    6.6096   12.0148   15.6717 N   0  0  0  0  0  0  0  0  0  0  0  0
   11.6243   14.6630   12.7066 C   0  0  1  0  0  0  0  0  0  0  0  0
   12.8884   18.3266   16.2719 P   0  0  0  0  0  0  0  0  0  0  0  0
  3  1  1  0
  6  2  2  0
  6  4  1  0
  9  1  1  0
 11 10  1  0
 12  4  2  0
 12  8  1  0
 13 11  1  0
 16  9  1  0
 17 15  1  0
 18  3  1  0
 19 11  1  0
 19 15  1  0
 20 15  1  0
 21 15  1  0
 22  3  1  0
 23  2  1  0
 23 12  1  0
 24  5  2  3
 24  8  1  0
 25  4  1  0
 26  3  1  0
 26  7  1  1
 26  8  1  0
 27 13  1  0
 27 14  1  0
 27 16  1  0
M  RAD  2  15   2  20   2
M  END
>  <ID>  (1) 
conformer_0

$$$$
