
     RDKit          3D

 28 29  0  0  0  0  0  0  0  0999 V2000
    8.5087   11.4523   13.3222 C   0  0  0  0  0  0  0  0  0  0  0  0
   11.6980   14.7482   12.5262 C   0  0  2  0  0  0  0  0  0  0  0  0
   11.3914   15.9295   12.0393 C   0  0  1  0  0  0  0  0  0  0  0  0
   10.0370   14.4792   14.8383 C   0  0  0  0  0  0  0  0  0  0  0  0
    9.2650   14.2096   15.6827 N   0  0  0  0  0  0  0  0  0  0  0  0
    7.5813   11.0952   14.1356 N   0  0  0  0  0  0  0  0  0  0  0  0
   10.4222   14.1591   13.8052 N   0  0  0  0  0  0  0  0  0  0  0  0
   12.7738   15.0348   13.6279 O   0  0  0  0  0  0  0  0  0  0  0  0
   11.7227   18.4170   16.7799 O   0  0  0  0  0  0  0  0  0  0  0  0
   14.1072   22.1272   15.0770 P   0  0  2  0  0  4  0  0  0  0  0  0
   13.9298   18.2334   16.3525 O   0  0  0  0  0  1  0  0  0  0  0  0
   12.4828   16.9573   12.6488 C   0  0  2  0  0  0  0  0  0  0  0  0
   15.1165   19.6034   18.0051 O   0  0  0  0  0  0  0  0  0  0  0  0
   11.8764   17.7470   11.3940 O   0  0  0  0  0  0  0  0  0  0  0  0
    8.1634   12.4781   15.0793 C   0  0  0  0  0  0  0  0  0  0  0  0
   14.0782   20.5295   15.5815 O   0  0  0  0  0  0  0  0  0  0  0  0
   12.6001   18.3783   16.0265 P   0  0  2  0  0  4  0  0  0  0  0  0
   12.0681   14.9587   10.7802 O   0  0  0  0  0  0  0  0  0  0  0  0
   13.3912   22.9886   15.7024 O   0  0  0  0  0  0  0  0  0  0  0  0
    9.4917   12.2755   12.8420 N   0  0  0  0  0  0  0  0  0  0  0  0
   14.3220   22.0837   13.7810 O   0  0  0  0  0  1  0  0  0  0  0  0
   15.9786   21.6450   16.4731 O   0  0  0  0  0  0  0  0  0  0  0  0
   13.2082   20.5868   17.5839 O   0  0  0  0  0  0  0  0  0  0  0  0
    6.9339   11.9673   15.8364 N   0  0  0  0  0  0  0  0  0  0  0  0
   14.4751   20.2480   17.0557 P   0  0  0  0  0  5  0  0  0  0  0  0
   13.4535   16.7079   13.8548 C   0  0  1  0  0  0  0  0  0  0  0  0
    9.4250   13.0393   14.1614 C   0  0  0  0  0  0  0  0  0  0  0  0
   12.4062   17.9528   14.9586 O   0  0  0  0  0  0  0  0  0  0  0  0
  3  2  1  0
  5  4  2  3
  6  1  2  0
  2  7  1  1
  7  4  1  0
  8  2  1  0
 12  3  1  0
 12 14  1  6
 15  6  1  0
 16 10  1  0
 17  9  1  1
 17 11  1  0
 17 13  1  0
  3 18  1  6
 10 19  1  6
 20  1  1  0
 21 10  1  0
 24 15  1  0
 25 13  1  0
 25 16  1  0
 25 22  1  0
 25 23  1  0
 26  8  1  0
 26 12  1  0
 27  7  1  0
 27 15  2  0
 27 20  1  0
 28 17  1  0
 26 28  1  1
M  RAD  4  10   2  11   2  17   2  21   2
M  END
>  <ID>  (1) 
conformer_0

$$$$
