
     RDKit          3D

 29 30  0  0  0  0  0  0  0  0999 V2000
    9.1334   13.0261   14.3992 C   0  0  0  0  0  0  0  0  0  0  0  0
   11.6969   15.5407   12.0936 C   0  0  1  0  0  0  0  0  0  0  0  0
   11.5531   14.4516   12.7352 C   0  0  1  0  0  0  0  0  0  0  0  0
    9.7594   14.4483   15.0392 C   0  0  0  0  0  0  0  0  0  0  0  0
    8.9003   14.1137   15.8106 N   0  0  0  0  0  0  0  0  0  0  0  0
    7.4150   11.0567   14.0733 N   0  0  0  0  0  0  0  0  0  0  0  0
   12.5748   14.7681   13.7592 O   0  0  0  0  0  0  0  0  0  0  0  0
    6.3544   12.0472   15.7426 N   0  0  0  0  0  0  0  0  0  0  0  0
   13.4700   20.5543   17.6993 O   0  0  0  0  0  0  0  0  0  0  0  0
   10.3460   14.0700   14.0666 N   0  0  0  0  0  0  0  0  0  0  0  0
   12.8108   18.4152   16.0582 P   0  0  1  0  0  4  0  0  0  0  0  0
   12.1919   16.8354   12.6144 C   0  0  2  0  0  0  0  0  0  0  0  0
    7.7282   12.4550   15.1616 C   0  0  0  0  0  0  0  0  0  0  0  0
   15.5992   19.9722   17.8133 O   0  0  0  0  0  1  0  0  0  0  0  0
   14.0767   18.3303   16.7244 O   0  0  0  0  0  0  0  0  0  0  0  0
   11.5222   17.5558   11.3698 O   0  0  0  0  0  0  0  0  0  0  0  0
   14.0317   22.2852   13.7052 O   0  0  0  0  0  1  0  0  0  0  0  0
   14.2989   22.1258   15.0246 P   0  0  0  0  0  4  0  0  0  0  0  0
   13.5371   22.9373   16.1383 O   0  0  0  0  0  0  0  0  0  0  0  0
   11.9878   14.8611   10.7538 O   0  0  0  0  0  0  0  0  0  0  0  0
   15.8273   22.4757   15.3797 O   0  0  0  0  0  0  0  0  0  0  0  0
   11.9194   18.7023   16.9314 O   0  0  0  0  0  0  0  0  0  0  0  0
    9.3073   11.9991   13.0114 N   0  0  0  0  0  0  0  0  0  0  0  0
    8.5083   11.4538   13.3118 C   0  0  0  0  0  0  0  0  0  0  0  0
   14.4376   20.5174   15.4442 O   0  0  0  0  0  0  0  0  0  0  0  0
   12.3988   19.0456   14.9912 O   0  0  0  0  0  1  0  0  0  0  0  0
   14.6516   20.1614   17.2412 P   0  0  1  0  0  4  0  0  0  0  0  0
   13.1429   16.5374   13.8457 C   0  0  1  0  0  0  0  0  0  0  0  0
   12.5802   16.9822   15.3887 O   0  0  0  0  0  0  0  0  0  0  0  0
  3  2  1  0
  4  1  1  0
  5  4  2  3
  7  3  1  0
  3 10  1  1
 10  4  1  0
 12  2  1  0
 13  1  2  0
 13  6  1  0
 13  8  1  0
 15 11  1  0
 12 16  1  6
 18 17  1  0
 19 18  1  0
  2 20  1  6
 21 18  1  0
 11 22  1  1
 23  1  1  0
 24  6  2  0
 24 23  1  0
 25 18  1  0
 26 11  1  0
 27  9  1  1
 27 14  1  0
 27 15  1  0
 27 25  1  0
 28  7  1  0
 28 12  1  0
 29 11  1  0
 28 29  1  1
M  RAD  6  11   2  14   2  17   2  18   2  26   2  27   2
M  END
>  <ID>  (1) 
conformer_0

$$$$
