
     RDKit          3D

 22 21  0  0  0  0  0  0  0  0999 V2000
    8.9906   12.3313   13.7461 C   0  0  0  0  0  0  0  0  0  0  0  0
   11.4701   14.6345   12.4812 C   0  0  0  0  0  0  0  0  0  0  0  0
   11.9376   16.0318   12.5830 C   0  0  1  0  0  0  0  0  0  0  0  0
    9.8018   14.1418   14.7723 C   0  0  0  0  0  0  0  0  0  0  0  0
    9.1796   14.3462   15.7134 N   0  0  0  0  0  0  0  0  0  0  0  0
    8.0479   11.5242   13.8358 N   0  0  0  0  0  0  0  0  0  0  0  0
   12.6489   14.6126   13.7515 O   0  0  0  0  0  0  0  0  0  0  0  0
   13.0280   16.6501   13.6430 C   0  0  0  0  0  0  0  0  0  0  0  0
   14.9544   19.1653   17.5516 O   0  0  0  0  0  1  0  0  0  0  0  0
   13.2610   20.7787   17.7801 O   0  0  0  0  0  0  0  0  0  0  0  0
   10.4157   13.9330   13.7907 N   0  0  0  0  0  0  0  0  0  0  0  0
   12.7555   17.8925   15.3298 O   0  0  0  0  0  0  0  0  0  0  0  0
    8.1238   12.6650   15.1259 C   0  0  0  0  0  0  0  0  0  0  0  0
   14.2172   22.1604   15.2861 P   0  0  0  0  0  4  0  0  0  0  0  0
   13.5053   19.0419   16.4577 P   0  0  0  0  0  5  0  0  0  0  0  0
   11.6203   17.4938   11.6053 O   0  0  0  0  0  0  0  0  0  0  0  0
   11.8753   18.0684   16.9633 O   0  0  0  0  0  0  0  0  0  0  0  0
   14.3041   22.4106   13.6755 O   0  0  0  0  0  0  0  0  0  0  0  0
   13.7076   23.0113   15.8701 O   0  0  0  0  0  0  0  0  0  0  0  0
    6.8814   12.4083   16.2903 N   0  0  0  0  0  0  0  0  0  0  0  0
   14.2645   20.2274   15.6009 O   0  0  0  0  0  0  0  0  0  0  0  0
   11.5796   15.3122   10.9613 O   0  0  0  0  0  0  0  0  0  0  0  0
  3  2  1  0
  5  4  1  0
  6  1  2  3
  7  2  1  0
  8  3  1  0
 11  2  1  0
 11  4  1  0
 12  8  1  0
 13  1  1  0
 13  5  1  0
 14  9  1  0
 15 10  1  0
 15 12  1  0
  3 16  1  6
 17 15  1  0
 18 14  1  0
 19 14  1  0
 20 13  2  3
 21 14  1  0
 21 15  1  0
 22  2  1  0
M  RAD  2   9   2  14   2
M  END
>  <ID>  (1) 
conformer_0

$$$$
