
     RDKit          3D

 29 29  0  0  0  0  0  0  0  0999 V2000
    9.3565   13.0689   14.2119 C   0  0  0  0  0  0  0  0  0  0  0  0
   12.4767   16.6482   12.7629 C   0  0  2  0  0  0  0  0  0  0  0  0
   11.2788   15.9321   12.0700 C   0  0  1  0  0  0  0  0  0  0  0  0
   10.0305   14.4307   14.8583 C   0  0  0  0  0  0  0  0  0  0  0  0
    7.2239   10.9822   14.1682 N   0  0  0  0  0  0  0  0  0  0  0  0
    9.2347   14.2487   15.6386 N   0  0  0  0  0  0  0  0  0  0  0  0
   12.7013   14.5705   13.3410 O   0  0  0  0  0  0  0  0  0  0  0  0
   10.5285   13.9345   13.7917 N   0  0  0  0  0  0  0  0  0  0  0  0
   14.3945   22.3911   14.9947 P   0  0  0  0  0  4  0  0  0  0  0  0
   14.2478   19.9674   16.8240 P   0  0  0  0  0  0  0  0  0  0  0  0
   13.4119   16.6561   13.8271 C   0  0  0  0  0  0  0  0  0  0  0  0
   15.2732   19.6319   17.7725 O   0  0  0  0  0  0  0  0  0  0  0  0
   11.6718   18.2198   16.8393 O   0  0  0  0  0  0  0  0  0  0  0  0
    8.0166   12.4666   15.1418 C   0  0  0  0  0  0  0  0  0  0  0  0
   11.6321   17.6982   11.4307 O   0  0  0  0  0  0  0  0  0  0  0  0
   14.2341   18.3315   16.6078 O   0  0  0  0  0  0  0  0  0  0  0  0
   13.4223   22.3207   13.8904 O   0  0  0  0  0  1  0  0  0  0  0  0
    6.6084   12.0389   15.8737 N   0  0  0  0  0  0  0  0  0  0  0  0
   15.8099   22.5066   14.6899 O   0  0  0  0  0  0  0  0  0  0  0  0
   13.1186   20.4426   17.4877 O   0  0  0  0  0  0  0  0  0  0  0  0
   13.7355   23.1609   16.1077 O   0  0  0  0  0  0  0  0  0  0  0  0
   11.0703   15.4739   10.8124 O   0  0  0  0  0  0  0  0  0  0  0  0
    8.5472   11.4834   13.2922 C   0  0  0  0  0  0  0  0  0  0  0  0
   14.6244   20.8055   15.7283 O   0  0  0  0  0  0  0  0  0  0  0  0
   11.5306   14.4751   12.6962 C   0  0  1  0  0  0  0  0  0  0  0  0
   12.4528   18.1876   15.9959 P   0  0  0  0  0  5  0  0  0  0  0  0
    8.8157   11.7002   13.2543 N   0  0  0  0  0  0  0  0  0  0  0  0
   12.5581   19.1885   15.0888 O   0  0  0  0  0  0  0  0  0  0  0  0
   12.3876   17.1608   15.0488 O   0  0  0  0  0  0  0  0  0  0  0  0
  3  2  1  0
  4  1  1  0
  6  4  2  3
  8  1  1  0
  8  4  1  0
 11  2  1  0
 12 10  1  0
 14  1  1  0
  2 15  1  1
 17  9  1  0
 18 14  1  0
 19  9  1  0
 20 10  1  0
 21  9  1  0
  3 22  1  6
 23  5  1  0
 24  9  1  0
 24 10  1  0
 25  3  1  0
 25  7  1  1
 25  8  1  0
 26 12  1  0
 26 13  1  0
 26 16  1  0
 27  1  1  0
 27 23  2  3
 28 26  1  0
 29 11  1  0
 29 26  1  0
M  RAD  2   9   2  17   2
M  END
>  <ID>  (1) 
conformer_0

$$$$
