
     RDKit          3D

 24 25  0  0  0  0  0  0  0  0999 V2000
   12.1102   15.5830   12.2678 C   0  0  2  0  0  0  0  0  0  0  0  0
    7.8720   12.6420   15.3435 C   0  0  0  0  0  0  0  0  0  0  0  0
   11.3711   14.4708   12.3032 C   0  0  0  0  0  0  0  0  0  0  0  0
    8.4746   11.7314   13.6219 C   0  0  0  0  0  0  0  0  0  0  0  0
    9.3082   14.5424   15.8498 N   0  0  0  0  0  0  0  0  0  0  0  0
    7.4961   11.3987   14.3373 N   0  0  0  0  0  0  0  0  0  0  0  0
   12.5442   14.2660   13.4692 O   0  0  0  0  0  0  0  0  0  0  0  0
    8.9169   11.5167   12.6684 N   0  0  0  0  0  0  0  0  0  0  0  0
    9.2874   13.2677   14.4069 C   0  0  0  0  0  0  0  0  0  0  0  0
   13.0866   16.1664   13.2218 C   0  0  0  0  0  0  0  0  0  0  0  0
   14.7315   22.0101   15.5441 P   0  0  0  0  0  4  0  0  0  0  0  0
   11.6819   18.3121   16.9783 O   0  0  0  0  0  0  0  0  0  0  0  0
   12.4802   19.1871   15.1667 O   0  0  0  0  0  0  0  0  0  0  0  0
   14.5872   18.9145   16.9789 O   0  0  0  0  0  0  0  0  0  0  0  0
   10.3930   14.0596   13.9721 N   0  0  0  0  0  0  0  0  0  0  0  0
   13.1527   18.8818   16.2925 P   0  0  0  0  0  5  0  0  0  0  0  0
   11.6382   17.2053   11.4286 O   0  0  0  0  0  0  0  0  0  0  0  0
   13.6405   23.0891   15.9110 O   0  0  0  0  0  0  0  0  0  0  0  0
   16.1801   22.6843   15.4019 O   0  0  0  0  0  0  0  0  0  0  0  0
   11.6239   14.8093   10.5875 O   0  0  0  0  0  0  0  0  0  0  0  0
   14.6507   20.9141   15.9113 O   0  0  0  0  0  0  0  0  0  0  0  0
   10.1357   14.8006   15.1083 C   0  0  0  0  0  0  0  0  0  0  0  0
   14.3187   22.0235   13.5929 O   0  0  0  0  0  1  0  0  0  0  0  0
   12.4873   17.1405   15.2385 O   0  0  0  0  0  0  0  0  0  0  0  0
  3  1  1  0
  6  2  1  0
  6  4  2  0
  7  3  1  0
  8  4  1  0
  9  2  1  0
  9  4  1  0
 10  1  1  0
 13 10  1  0
 15  3  1  0
 15  9  1  0
 16 12  1  0
 16 13  1  0
 16 14  1  0
  1 17  1  1
 18 11  1  0
 19 11  1  0
 20  3  1  0
 21 11  1  0
 21 16  1  0
 22  5  2  3
 22  9  1  0
 22 15  1  0
 23 11  1  0
 24 16  1  0
M  RAD  2  11   2  23   2
M  END
>  <ID>  (1) 
conformer_0

$$$$
