
     RDKit          3D

 29 30  0  0  0  0  0  0  0  0999 V2000
    8.5868   11.5625   13.1824 C   0  0  0  0  0  0  0  0  0  0  0  0
   11.6107   14.2876   12.8334 C   0  0  2  0  0  0  0  0  0  0  0  0
   11.5368   15.5954   12.2458 C   0  0  0  0  0  0  0  0  0  0  0  0
    9.8350   14.6198   14.7531 C   0  0  0  0  0  0  0  0  0  0  0  0
    7.4611   11.1524   13.9659 N   0  0  0  0  0  0  0  0  0  0  0  0
    8.8689   14.1139   15.4212 N   0  0  0  0  0  0  0  0  0  0  0  0
   10.4107   14.1793   13.8031 N   0  0  0  0  0  0  0  0  0  0  0  0
   12.5793   14.6453   13.7408 O   0  0  0  0  0  0  0  0  0  0  0  0
   13.3881   20.4859   17.5581 O   0  0  0  0  0  0  0  0  0  0  0  0
   13.5038   22.8109   15.6102 O   0  0  0  0  0  0  0  0  0  0  0  0
   12.7164   18.4910   15.8428 P   0  0  0  0  0  5  0  0  0  0  0  0
   15.6111   19.7854   17.7036 O   0  0  0  0  0  0  0  0  0  0  0  0
   12.5670   17.1365   14.9686 O   0  0  0  0  0  0  0  0  0  0  0  0
   11.5974   16.9832   11.4374 O   0  0  0  0  0  0  0  0  0  0  0  0
    7.8208   12.4945   14.8659 C   0  0  0  0  0  0  0  0  0  0  0  0
   11.9406   18.5955   16.7948 O   0  0  0  0  0  0  0  0  0  0  0  0
   15.9768   22.2756   15.8668 O   0  0  0  0  0  0  0  0  0  0  0  0
   12.5978   16.2966   12.9929 C   0  0  2  0  0  0  0  0  0  0  0  0
   14.4341   22.1482   13.6103 O   0  0  0  0  0  1  0  0  0  0  0  0
   14.4671   22.1079   14.9862 P   0  0  0  0  0  4  0  0  0  0  0  0
    6.4166   11.8908   15.6163 N   0  0  0  0  0  0  0  0  0  0  0  0
    9.2573   12.0855   12.7223 N   0  0  0  0  0  0  0  0  0  0  0  0
    9.2603   13.2601   14.0781 C   0  0  0  0  0  0  0  0  0  0  0  0
   14.6748   20.1512   16.9413 P   0  0  0  0  0  0  0  0  0  0  0  0
   11.9986   14.9538   11.0244 O   0  0  0  0  0  0  0  0  0  0  0  0
   14.6330   20.5882   15.4100 O   0  0  0  0  0  0  0  0  0  0  0  0
   12.3259   19.2622   14.7639 O   0  0  0  0  0  0  0  0  0  0  0  0
   13.5220   16.7723   14.1586 C   0  0  0  0  0  0  0  0  0  0  0  0
   14.2037   18.5105   16.4299 O   0  0  0  0  0  0  0  0  0  0  0  0
  3  2  1  0
  5  1  1  0
  6  4  2  0
  2  7  1  1
  7  4  1  0
  8  2  1  0
 12 11  1  0
 13 11  1  0
 14  3  1  0
 15  5  1  0
 16 11  1  0
 18  3  1  0
 18  8  1  0
 20 10  1  0
 20 17  1  0
 20 19  1  0
 21 15  2  3
 22  1  3  0
 23  6  1  0
 23  7  1  0
 23 15  1  0
 24  9  1  0
 24 12  1  0
 25  3  1  0
 26 20  1  0
 26 24  1  0
 27 11  1  0
 28 13  1  0
 18 28  1  1
 29 11  1  0
M  RAD  2  19   2  20   2
M  END
>  <ID>  (1) 
conformer_0

$$$$
