
     RDKit          3D

 25 25  0  0  0  0  0  0  0  0999 V2000
   11.4351   14.4770   12.4260 C   0  0  1  0  0  0  0  0  0  0  0  0
    8.5157   11.4520   13.2064 C   0  0  0  0  0  0  0  0  0  0  0  0
   11.9210   15.7143   12.2615 C   0  0  2  0  0  0  0  0  0  0  0  0
    9.9642   14.5458   14.9609 C   0  0  0  0  0  0  0  0  0  0  0  0
    7.6576   11.2304   13.9667 N   0  0  0  0  0  0  0  0  0  0  0  0
   12.6684   14.9761   13.7938 O   0  0  0  0  0  0  0  0  0  0  0  0
    9.0650   14.1773   15.7324 N   0  0  0  0  0  0  0  0  0  0  0  0
   13.3392   20.4735   17.6964 O   0  0  0  0  0  0  0  0  0  0  0  0
   14.3277   19.8986   16.9714 P   0  0  0  0  0  0  0  0  0  0  0  0
   11.4234   18.0170   16.8650 O   0  0  0  0  0  0  0  0  0  0  0  0
   14.2329   20.1121   15.6344 O   0  0  0  0  0  0  0  0  0  0  0  0
    7.8303   12.4154   15.0541 C   0  0  0  0  0  0  0  0  0  0  0  0
   10.2936   13.9994   13.9901 N   0  0  0  0  0  0  0  0  0  0  0  0
   12.7848   17.8733   15.5979 O   0  0  0  0  0  1  0  0  0  0  0  0
   14.1704   22.0180   14.9580 P   0  0  0  0  0  4  0  0  0  0  0  0
   15.1194   19.2640   17.5604 O   0  0  0  0  0  0  0  0  0  0  0  0
   12.2147   14.4144   10.8238 O   0  0  0  0  0  0  0  0  0  0  0  0
   12.9130   16.5886   13.2131 C   0  0  2  0  0  0  0  0  0  0  0  0
   13.3295   23.0006   15.8918 O   0  0  0  0  0  0  0  0  0  0  0  0
   12.1770   17.0691   11.2551 O   0  0  0  0  0  0  0  0  0  0  0  0
   14.0021   21.5873   13.8747 O   0  0  0  0  0  1  0  0  0  0  0  0
    9.1994   13.0352   14.2121 C   0  0  0  0  0  0  0  0  0  0  0  0
   15.5038   22.6054   15.2962 O   0  0  0  0  0  0  0  0  0  0  0  0
    9.2045   11.5617   12.5342 N   0  0  0  0  0  0  0  0  0  0  0  0
   12.5153   18.1342   16.1249 P   0  0  2  0  0  4  0  0  0  0  0  0
  3  1  1  0
  5  2  1  0
  6  3  1  0
  7  4  2  3
  9  8  1  0
 11  9  1  0
 12  5  1  0
 13  1  1  0
 13  4  1  0
 15 11  1  0
 16  9  1  0
  1 17  1  6
 18  3  1  0
 18  6  1  1
 19 15  1  0
  3 20  1  6
 21 15  1  0
 22 12  2  3
 22 13  1  0
 23 15  1  0
 24  2  1  0
 25 10  1  1
 25 14  1  0
 25 16  1  0
 25 18  1  0
M  RAD  4  14   2  15   2  21   2  25   2
M  END
>  <ID>  (1) 
conformer_0

$$$$
