
     RDKit          3D

 29 31  0  0  0  0  0  0  0  0999 V2000
   11.3874   15.8797   12.1796 C   0  0  0  0  0  0  0  0  0  0  0  0
    8.8735   13.0430   14.7163 C   0  0  0  0  0  0  0  0  0  0  0  0
   12.6243   16.3395   13.1528 C   0  0  0  0  0  0  0  0  0  0  0  0
   10.1558   14.6846   14.8801 C   0  0  0  0  0  0  0  0  0  0  0  0
    7.5269   11.0841   13.9202 N   0  0  0  0  0  0  0  0  0  0  0  0
    9.0159   13.9826   15.5432 N   0  0  0  0  0  0  0  0  0  0  0  0
   12.7045   14.7485   13.5593 O   0  0  0  0  0  0  0  0  0  0  0  0
   10.4093   13.9104   13.7010 N   0  0  0  0  0  0  0  0  0  0  0  0
   14.9117   19.3054   17.5610 O   0  0  0  0  0  0  0  0  0  0  0  0
   11.8217   18.2036   16.8008 O   0  0  0  0  0  0  0  0  0  0  0  0
    6.7827   11.8868   15.8477 N   0  0  0  0  0  0  0  0  0  0  0  0
   13.6843   16.7469   14.2488 C   0  0  0  0  0  0  0  0  0  0  0  0
    7.6708   12.0226   14.9111 C   0  0  0  0  0  0  0  0  0  0  0  0
   14.3823   20.3115   16.7763 P   0  0  0  0  0  0  0  0  0  0  0  0
   13.1548   20.5426   17.6064 O   0  0  0  0  0  0  0  0  0  0  0  0
   11.5778   17.3719   11.5648 O   0  0  0  0  0  0  0  0  0  0  0  0
   13.1022   17.2091   15.4426 O   0  0  0  0  0  0  0  0  0  0  0  0
   14.1995   22.4411   13.6146 O   0  0  0  0  0  1  0  0  0  0  0  0
   14.5103   22.4746   15.0063 P   0  0  0  0  0  4  0  0  0  0  0  0
   13.6504   23.2613   15.9356 O   0  0  0  0  0  0  0  0  0  0  0  0
   16.1345   22.2082   15.4774 O   0  0  0  0  0  0  0  0  0  0  0  0
   14.5250   20.9521   15.8196 O   0  0  0  0  0  0  0  0  0  0  0  0
    9.1548   11.8144   12.6726 N   0  0  0  0  0  0  0  0  0  0  0  0
    8.3931   11.0612   12.7631 C   0  0  0  0  0  0  0  0  0  0  0  0
   11.0672   15.3450   10.8462 O   0  0  0  0  0  0  0  0  0  0  0  0
   13.0522   19.1970   15.2606 O   0  0  0  0  0  1  0  0  0  0  0  0
   11.3656   14.5035   12.4962 C   0  0  0  0  0  0  0  0  0  0  0  0
   12.7643   18.2737   16.1054 P   0  0  0  0  0  4  0  0  0  0  0  0
    9.5687   12.9133   13.5831 C   0  0  0  0  0  0  0  0  0  0  0  0
  3  1  1  0
  6  2  1  0
  6  4  2  0
  7  3  1  0
  8  4  1  0
 12  3  1  0
 13  2  2  0
 13  5  1  0
 13 11  1  0
 14  9  1  0
 15 14  1  0
 16  1  1  0
 17 12  1  0
 19 18  1  0
 20 19  1  0
 21 19  1  0
 22 14  1  0
 22 19  1  0
 24  5  2  0
 24 23  1  0
 25  1  1  0
 27  1  1  0
 27  7  1  0
 27  8  1  0
 28  9  1  0
 28 10  1  0
 28 17  1  0
 28 26  1  0
 29  2  1  0
 29  8  1  0
 29 23  2  0
M  RAD  4  18   2  19   2  26   2  28   2
M  END
>  <ID>  (1) 
conformer_0

$$$$
