
     RDKit          3D

 30 31  0  0  0  0  0  0  0  0999 V2000
   11.2023   14.5441   12.2026 C   0  0  0  0  0  0  0  0  0  0  0  0
    8.4627   11.3139   13.1035 C   0  0  0  0  0  0  0  0  0  0  0  0
   11.5237   15.6883   12.0390 C   0  0  0  0  0  0  0  0  0  0  0  0
    9.5344   13.1072   13.6282 C   0  0  0  0  0  0  0  0  0  0  0  0
    9.1859   14.3807   15.5477 N   0  0  0  0  0  0  0  0  0  0  0  0
    7.6146   11.3592   13.9556 N   0  0  0  0  0  0  0  0  0  0  0  0
   14.3946   22.2935   15.2095 P   0  0  0  0  0  4  0  0  0  0  0  0
   10.3355   14.2261   13.7237 N   0  0  0  0  0  0  0  0  0  0  0  0
   12.5137   14.9744   13.5656 O   0  0  0  0  0  0  0  0  0  0  0  0
   12.2763   17.4168   15.0452 O   0  0  0  0  0  0  0  0  0  0  0  0
   13.1478   20.5509   17.4433 O   0  0  0  0  0  0  0  0  0  0  0  0
    8.8832   13.3703   14.8639 C   0  0  0  0  0  0  0  0  0  0  0  0
   15.2241   19.4811   17.8198 O   0  0  0  0  0  0  0  0  0  0  0  0
   12.4830   16.4474   12.8312 C   0  0  0  0  0  0  0  0  0  0  0  0
    7.0690   12.1691   16.0281 N   0  0  0  0  0  0  0  0  0  0  0  0
   12.7113   18.0359   16.1393 P   0  0  0  0  0  5  0  0  0  0  0  0
    9.2900   11.5310   12.7978 N   0  0  0  0  0  0  0  0  0  0  0  0
   11.8895   14.4595   10.5660 O   0  0  0  0  0  0  0  0  0  0  0  0
   15.2592   21.1221   16.1734 O   0  0  0  0  0  0  0  0  0  0  0  0
   13.4642   23.0528   16.1329 O   0  0  0  0  0  0  0  0  0  0  0  0
   11.9202   18.4366   16.8764 O   0  0  0  0  0  0  0  0  0  0  0  0
   12.0113   16.8007   11.1567 O   0  0  0  0  0  0  0  0  0  0  0  0
   14.0578   22.0212   13.8700 O   0  0  0  0  0  1  0  0  0  0  0  0
   15.7170   22.8942   15.5547 O   0  0  0  0  0  0  0  0  0  0  0  0
   10.1946   14.9747   14.8964 C   0  0  0  0  0  0  0  0  0  0  0  0
   13.7215   19.7778   15.3010 O   0  0  0  0  0  0  0  0  0  0  0  0
   14.4421   20.0819   16.8606 P   0  0  0  0  0  0  0  0  0  0  0  0
   13.1133   16.8542   14.0241 C   0  0  0  0  0  0  0  0  0  0  0  0
   14.0487   17.7990   16.5900 O   0  0  0  0  0  0  0  0  0  0  0  0
    7.7209   12.2450   15.0388 C   0  0  0  0  0  0  0  0  0  0  0  0
  3  1  1  0
  6  2  1  0
  8  1  1  0
  8  4  1  0
 12  4  2  0
 12  5  1  0
 14  3  1  0
 14  9  1  0
 16 10  1  0
 16 13  1  0
 17  2  1  0
 17  4  1  0
 18  1  1  0
 19  7  1  0
 20  7  1  0
 21 16  1  0
 22  3  1  0
 23  7  1  0
 24  7  1  0
 25  5  2  0
 25  8  1  0
 26 16  1  0
 27 11  1  0
 27 13  1  0
 27 19  1  0
 28 10  1  0
 28 14  1  0
 29 16  1  0
 30  6  2  0
 30 12  1  0
 30 15  1  0
M  RAD  2   7   2  23   2
M  END
>  <ID>  (1) 
conformer_0

$$$$
