
     RDKit          3D

 28 28  0  0  0  0  0  0  0  0999 V2000
   11.4566   14.5229   12.4684 C   0  0  1  0  0  0  0  0  0  0  0  0
    9.2280   12.9292   14.0687 C   0  0  0  0  0  0  0  0  0  0  0  0
   11.4773   15.8252   12.1246 C   0  0  0  0  0  0  0  0  0  0  0  0
    9.8747   14.2415   14.6575 C   0  0  0  0  0  0  0  0  0  0  0  0
    7.5211   11.1543   14.0162 N   0  0  0  0  0  0  0  0  0  0  0  0
    9.1070   14.0356   15.4386 N   0  0  0  0  0  0  0  0  0  0  0  0
   12.7425   14.7624   13.6302 O   0  0  0  0  0  0  0  0  0  0  0  0
   10.3706   13.9553   13.6742 N   0  0  0  0  0  0  0  0  0  0  0  0
    9.3200   11.6254   12.5205 N   0  0  0  0  0  0  0  0  0  0  0  0
   12.7586   18.3775   16.0530 P   0  0  0  0  0  0  0  0  0  0  0  0
   11.9222   18.5200   16.8626 O   0  0  0  0  0  0  0  0  0  0  0  0
    6.6384   12.2638   15.8925 N   0  0  0  0  0  0  0  0  0  0  0  0
   13.5028   20.8197   17.6490 O   0  0  0  0  0  0  0  0  0  0  0  0
   12.5672   16.4557   12.8776 C   0  0  2  0  0  0  0  0  0  0  0  0
    7.7598   12.4157   15.1435 C   0  0  0  0  0  0  0  0  0  0  0  0
   15.5395   19.9603   17.6103 O   0  0  0  0  0  1  0  0  0  0  0  0
   13.4145   23.2716   15.5868 O   0  0  0  0  0  0  0  0  0  0  0  0
   12.5862   17.8695   15.0763 O   0  0  0  0  0  0  0  0  0  0  0  0
   14.2471   20.6430   15.4598 O   0  0  0  0  0  0  0  0  0  0  0  0
   14.1352   22.1401   14.7605 P   0  0  0  0  0  4  0  0  0  0  0  0
   11.7096   17.3357   11.5237 O   0  0  0  0  0  0  0  0  0  0  0  0
   13.7768   21.9524   13.4930 O   0  0  0  0  0  1  0  0  0  0  0  0
   11.7364   15.1022   10.6846 O   0  0  0  0  0  0  0  0  0  0  0  0
   14.5716   20.3649   16.9492 P   0  0  2  0  0  4  0  0  0  0  0  0
    8.4995   11.5126   13.3699 C   0  0  0  0  0  0  0  0  0  0  0  0
   13.2172   16.7473   14.2528 C   0  0  0  0  0  0  0  0  0  0  0  0
   14.2414   18.4188   16.6549 O   0  0  0  0  0  0  0  0  0  0  0  0
   15.4039   22.6283   15.3158 O   0  0  0  0  0  0  0  0  0  0  0  0
  3  1  1  0
  4  2  2  0
  6  4  1  0
  7  1  1  0
  1  8  1  1
  8  4  1  0
 11 10  1  0
 14  3  1  0
 14  7  1  0
 15  5  2  3
 15 12  1  0
 18 10  1  0
 20 17  1  0
 20 19  1  0
 21  3  1  0
 22 20  1  0
 23  3  1  0
 24 13  1  1
 24 16  1  0
 24 19  1  0
 25  2  2  0
 25  5  1  0
 25  9  1  0
 14 26  1  1
 26 18  1  0
 27 10  1  0
 27 24  1  0
 28 20  1  0
M  RAD  4  16   2  20   2  22   2  24   2
M  END
>  <ID>  (1) 
conformer_0

$$$$
