
     RDKit          3D

 26 27  0  0  0  0  0  0  0  0999 V2000
    9.3088   13.1949   14.2092 C   0  0  0  0  0  0  0  0  0  0  0  0
   11.6608   14.2795   12.6637 C   0  0  1  0  0  0  0  0  0  0  0  0
   11.5016   15.4552   12.0752 C   0  0  1  0  0  0  0  0  0  0  0  0
   10.0117   14.5745   14.9100 C   0  0  0  0  0  0  0  0  0  0  0  0
    7.5233   11.1871   14.0194 N   0  0  0  0  0  0  0  0  0  0  0  0
    9.1459   14.2833   15.6612 N   0  0  0  0  0  0  0  0  0  0  0  0
   12.6679   14.5514   13.6457 O   0  0  0  0  0  0  0  0  0  0  0  0
   10.4268   14.0437   13.8142 N   0  0  0  0  0  0  0  0  0  0  0  0
   14.8762   19.5081   17.5579 O   0  0  0  0  0  0  0  0  0  0  0  0
    7.9735   12.5413   15.0720 C   0  0  0  0  0  3  0  0  0  0  0  0
   12.6141   18.1854   15.9115 P   0  0  2  0  0  4  0  0  0  0  0  0
   11.9326   18.5715   16.8905 O   0  0  0  0  0  0  0  0  0  0  0  0
   14.0456   22.1733   14.8956 P   0  0  1  0  0  4  0  0  0  0  0  0
   12.5621   17.2064   15.1349 O   0  0  0  0  0  0  0  0  0  0  0  0
   12.5292   16.3349   12.6587 C   0  0  1  0  0  0  0  0  0  0  0  0
   13.7127   22.9289   15.7851 O   0  0  0  0  0  0  0  0  0  0  0  0
   14.6420   20.6733   15.6963 O   0  0  0  0  0  0  0  0  0  0  0  0
    6.6996   12.0108   15.8693 N   0  0  0  0  0  0  0  0  0  0  0  0
   12.0926   17.0816   11.3185 O   0  0  0  0  0  0  0  0  0  0  0  0
    8.5279   11.4775   13.2836 C   0  0  0  0  0  0  0  0  0  0  0  0
    9.2386   11.8892   12.9523 N   0  0  0  0  0  0  0  0  0  0  0  0
   13.9450   21.7593   13.7000 O   0  0  0  0  0  1  0  0  0  0  0  0
   14.2601   20.0877   16.8045 P   0  0  0  0  0  0  0  0  0  0  0  0
   11.5275   15.0328   10.7335 O   0  0  0  0  0  0  0  0  0  0  0  0
   12.8694   19.2242   15.1219 O   0  0  0  0  0  1  0  0  0  0  0  0
   13.2495   16.4375   13.6807 C   0  0  0  0  0  0  0  0  0  0  0  0
  3  2  1  0
  4  1  1  0
  6  4  2  3
  2  7  1  1
  8  1  1  0
  8  2  1  0
  8  4  1  0
 10  1  1  0
 10  5  1  0
 11 12  1  1
 14 11  1  0
 15  3  1  0
 13 16  1  1
 17 13  1  0
 18 10  1  0
 15 19  1  1
 20  5  2  0
 21  1  1  0
 21 20  1  0
 22 13  1  0
 23  9  1  0
 23 11  1  0
 23 17  1  0
  3 24  1  6
 25 11  1  0
 26 14  1  0
 26 15  1  0
M  RAD  5  10   2  11   2  13   2  22   2  25   2
M  END
>  <ID>  (1) 
conformer_0

$$$$
