
     RDKit          3D

 28 28  0  0  0  0  0  0  0  0999 V2000
    9.2753   13.1607   14.4184 C   0  0  0  0  0  0  0  0  0  0  0  0
   11.5817   14.4358   12.6030 C   0  0  1  0  0  0  0  0  0  0  0  0
   11.4706   15.7590   12.1530 C   0  0  0  0  0  0  0  0  0  0  0  0
   10.1208   14.3761   14.8816 C   0  0  0  0  0  0  0  0  0  0  0  0
    9.2807   14.2163   15.8057 N   0  0  0  0  0  0  0  0  0  0  0  0
   12.7490   16.1623   12.9555 C   0  0  2  0  0  0  0  0  0  0  0  0
    7.2648   11.2120   14.3672 N   0  0  0  0  0  0  0  0  0  0  0  0
   12.8609   14.6940   13.7082 O   0  0  0  0  0  0  0  0  0  0  0  0
   12.6185   18.0863   16.1116 P   0  0  0  0  0  0  0  0  0  0  0  0
   14.3934   22.5592   14.9256 P   0  0  0  0  0  4  0  0  0  0  0  0
   11.7104   18.2716   16.7033 O   0  0  0  0  0  0  0  0  0  0  0  0
   10.4699   14.0110   13.8912 N   0  0  0  0  0  0  0  0  0  0  0  0
   13.9182   20.3509   15.3116 O   0  0  0  0  0  0  0  0  0  0  0  0
    7.8412   12.5413   15.4238 C   0  0  0  0  0  0  0  0  0  0  0  0
   13.9658   22.6140   13.8199 O   0  0  0  0  0  1  0  0  0  0  0  0
    6.8161   12.3980   16.2002 N   0  0  0  0  0  0  0  0  0  0  0  0
   12.0734   14.9443   10.8132 O   0  0  0  0  0  0  0  0  0  0  0  0
   13.7419   23.1398   16.0906 O   0  0  0  0  0  0  0  0  0  0  0  0
   13.0061   17.6830   15.3124 O   0  0  0  0  0  0  0  0  0  0  0  0
   15.9147   22.3292   15.2027 O   0  0  0  0  0  0  0  0  0  0  0  0
   14.6497   18.7329   16.9433 O   0  0  0  0  0  0  0  0  0  0  0  0
   11.8694   17.2130   11.5365 O   0  0  0  0  0  0  0  0  0  0  0  0
   12.9710   20.2726   17.2529 O   0  0  0  0  0  0  0  0  0  0  0  0
   13.7099   16.7366   14.1981 C   0  0  0  0  0  0  0  0  0  0  0  0
    8.9686   11.0357   12.4469 N   0  0  0  0  0  0  0  0  0  0  0  0
    8.6706   11.7938   13.5329 C   0  0  0  0  0  0  0  0  0  0  0  0
    9.0183   12.0253   13.3622 N   0  0  0  0  0  0  0  0  0  0  0  0
   14.1459   20.0835   16.1582 P   0  0  0  0  0  0  0  0  0  0  0  0
  3  2  1  0
  4  1  1  0
  5  4  2  3
  6  3  1  0
  8  2  1  0
  8  6  1  0
 11  9  1  0
  2 12  1  1
 12  4  1  0
 13 10  1  0
 14  7  2  3
 15 10  1  0
 16 14  1  0
 17  3  1  0
 18 10  1  0
 19  9  1  0
 20 10  1  0
 21  9  1  0
 22  3  1  0
  6 24  1  1
 24 19  1  0
 26  7  1  0
 26 25  2  3
 27  1  2  3
 27 26  1  0
 28 13  1  0
 28 21  1  0
 28 23  1  0
M  RAD  2  10   2  15   2
M  END
>  <ID>  (1) 
conformer_0

$$$$
