
     RDKit          3D

 29 29  0  0  0  0  0  0  0  0999 V2000
   11.5338   15.5797   12.1110 C   0  0  0  0  0  0  0  0  0  0  0  0
    9.1874   13.1054   14.0953 C   0  0  0  0  0  0  0  0  0  0  0  0
   11.3531   14.0798   12.5584 C   0  0  2  0  0  0  0  0  0  0  0  0
    9.8947   14.4080   14.6315 C   0  0  0  0  0  0  0  0  0  0  0  0
    7.5640   11.2944   13.9763 N   0  0  0  0  0  0  0  0  0  0  0  0
    9.0499   14.1256   15.4519 N   0  0  0  0  0  0  0  0  0  0  0  0
   10.3046   13.9045   13.6294 N   0  0  0  0  0  0  0  0  0  0  0  0
   13.4245   20.4966   17.7341 O   0  0  0  0  0  0  0  0  0  0  0  0
   12.5524   14.6212   13.5326 O   0  0  0  0  0  0  0  0  0  0  0  0
   11.7341   18.3907   16.8049 O   0  0  0  0  0  0  0  0  0  0  0  0
   12.6182   18.2781   15.8906 P   0  0  1  0  0  4  0  0  0  0  0  0
   13.5318   22.7282   15.6888 O   0  0  0  0  0  0  0  0  0  0  0  0
   12.6008   17.1427   15.2636 O   0  0  0  0  0  0  0  0  0  0  0  0
   14.5533   21.9474   14.8910 P   0  0  0  0  0  5  0  0  0  0  0  0
    8.9017   11.2789   12.3587 N   0  0  0  0  0  0  0  0  0  0  0  0
   12.4259   16.4069   12.8264 C   0  0  0  0  0  0  0  0  0  0  0  0
   12.0682   17.3508   11.4764 O   0  0  0  0  0  0  0  0  0  0  0  0
   15.6138   20.1117   17.7696 O   0  0  0  0  0  0  0  0  0  0  0  0
    7.7280   12.3563   15.0081 C   0  0  0  0  0  0  0  0  0  0  0  0
   14.7888   20.5985   15.4753 O   0  0  0  0  0  0  0  0  0  0  0  0
    6.4852   12.0958   15.9193 N   0  0  0  0  0  0  0  0  0  0  0  0
   14.4434   20.0247   17.1223 P   0  0  0  0  0  0  0  0  0  0  0  0
   14.5394   21.9910   13.4286 O   0  0  0  0  0  0  0  0  0  0  0  0
   12.5614   19.3006   14.8915 O   0  0  0  0  0  1  0  0  0  0  0  0
   15.7934   22.6700   15.1113 O   0  0  0  0  0  0  0  0  0  0  0  0
    8.4446   11.5253   13.3196 C   0  0  0  0  0  0  0  0  0  0  0  0
   14.3030   18.3846   16.7743 O   0  0  0  0  0  0  0  0  0  0  0  0
   11.1026   15.5891   10.9604 O   0  0  0  0  0  0  0  0  0  0  0  0
   13.3038   16.6309   13.9835 C   0  0  0  0  0  0  0  0  0  0  0  0
  3  1  1  0
  4  2  1  0
  6  4  2  3
  7  2  1  0
  7  3  1  0
  7  4  1  0
  3  9  1  1
 11 10  1  1
 13 11  1  0
 14 12  1  0
 16  1  2  3
 17 16  1  0
 18 14  1  0
 19  2  1  0
 19  5  1  0
 20 14  1  0
 21 19  2  3
 22  8  1  0
 22 18  1  0
 23 14  1  0
 24 11  1  0
 25 14  1  0
 26  5  2  3
 26 15  1  0
 27 11  1  0
 27 22  1  0
 28  1  1  0
 29 13  1  0
 29 16  1  0
M  RAD  2  11   2  24   2
M  END
>  <ID>  (1) 
conformer_0

$$$$
