
     RDKit          3D

 27 27  0  0  0  0  0  0  0  0999 V2000
   11.3467   14.4950   12.5004 C   0  0  1  0  0  0  0  0  0  0  0  0
    8.6578   11.4656   13.1103 C   0  0  0  0  0  0  0  0  0  0  0  0
   11.3197   15.7258   12.1972 C   0  0  0  0  0  0  0  0  0  0  0  0
    9.9574   14.4997   14.9117 C   0  0  0  0  0  0  0  0  0  0  0  0
    7.4992   10.9367   13.9414 N   0  0  0  0  0  0  0  0  0  0  0  0
    9.0175   14.1786   15.6286 N   0  0  0  0  0  0  0  0  0  0  0  0
   12.7007   14.9005   13.5453 O   0  0  0  0  0  0  0  0  0  0  0  0
   14.2591   20.1307   16.7819 P   0  0  0  0  0  0  0  0  0  0  0  0
   12.3620   16.6337   12.7838 C   0  0  0  0  0  0  0  0  0  0  0  0
   10.3748   14.0816   13.9339 N   0  0  0  0  0  0  0  0  0  0  0  0
    7.9583   12.3817   15.0266 C   0  0  0  0  0  0  0  0  0  0  0  0
   14.9147   19.1281   17.4425 O   0  0  0  0  0  0  0  0  0  0  0  0
   14.1779   21.9876   14.5157 P   0  0  0  0  0  4  0  0  0  0  0  0
   13.2887   20.6036   17.4799 O   0  0  0  0  0  0  0  0  0  0  0  0
   11.8246   18.5410   16.8074 O   0  0  0  0  0  0  0  0  0  0  0  0
   13.4597   22.8856   15.3552 O   0  0  0  0  0  0  0  0  0  0  0  0
   11.2525   17.2674   11.4001 O   0  0  0  0  0  0  0  0  0  0  0  0
   13.1254   17.4978   15.7639 O   0  0  0  0  0  0  0  0  0  0  0  0
   13.8308   21.8788   13.2691 O   0  0  0  0  0  1  0  0  0  0  0  0
    6.7052   11.8541   15.7692 N   0  0  0  0  0  0  0  0  0  0  0  0
   13.8386   19.8871   15.3476 O   0  0  0  0  0  1  0  0  0  0  0  0
   11.3209   15.0152   10.6896 O   0  0  0  0  0  0  0  0  0  0  0  0
   15.5160   21.9033   14.8283 O   0  0  0  0  0  0  0  0  0  0  0  0
    9.2865   13.0183   14.1752 C   0  0  1  0  0  0  0  0  0  0  0  0
    9.0986   11.9345   12.7515 N   0  0  0  0  0  0  0  0  0  0  0  0
   13.4750   16.9112   13.9754 C   0  0  0  0  0  0  0  0  0  0  0  0
   12.9018   18.2199   16.1911 P   0  0  2  0  0  4  0  0  0  0  0  0
  3  1  1  0
  5  2  1  0
  6  4  2  3
  1  7  1  1
  9  3  1  0
 10  1  1  0
 10  4  1  0
 11  5  2  0
 12  8  1  0
 13  8  1  0
 14  8  1  0
 16 13  1  0
 17  3  1  0
 19 13  1  0
 20 11  1  0
 22  3  1  0
 23 13  1  0
 24 10  1  6
 24 11  1  0
 25  2  1  0
 25 24  1  0
 26  9  1  0
 26 18  1  0
 27 12  1  0
 27 15  1  1
 27 18  1  0
 27 21  1  0
M  RAD  4  13   2  19   2  21   2  27   2
M  END
>  <ID>  (1) 
conformer_0

$$$$
