
     RDKit          3D

 25 26  0  0  0  0  0  0  0  0999 V2000
   11.5421   14.3543   12.6663 C   0  0  1  0  0  0  0  0  0  0  0  0
    8.3511   11.6358   13.7551 C   0  0  0  0  0  0  0  0  0  0  0  0
   11.5386   15.5153   12.1739 C   0  0  1  0  0  0  0  0  0  0  0  0
    9.9552   14.6025   15.0684 C   0  0  0  0  0  0  0  0  0  0  0  0
    9.2079   14.4137   15.8509 N   0  0  0  0  0  0  0  0  0  0  0  0
    7.8550   11.5278   14.1626 N   0  0  0  0  0  0  0  0  0  0  0  0
   12.6401   15.0973   13.7783 O   0  0  0  0  0  0  0  0  0  0  0  0
    7.7873   12.7884   15.5103 C   0  0  0  0  0  0  0  0  0  0  0  0
   13.7892   19.2039   16.4052 P   0  0  0  0  0  5  0  0  0  0  0  0
   10.4049   14.1091   14.0100 N   0  0  0  0  0  0  0  0  0  0  0  0
   15.0792   19.1829   17.5315 O   0  0  0  0  0  0  0  0  0  0  0  0
   12.2545   16.5291   12.6795 C   0  0  1  0  0  0  0  0  0  0  0  0
   14.3750   21.9711   15.0964 P   0  0  0  0  0  5  0  0  0  0  0  0
   14.0427   21.8373   13.5917 O   0  0  0  0  0  0  0  0  0  0  0  0
   12.8599   18.0868   15.1847 O   0  0  0  0  0  0  0  0  0  0  0  0
   13.2983   20.6463   17.4000 O   0  0  0  0  0  0  0  0  0  0  0  0
   11.7485   17.2469   11.2683 O   0  0  0  0  0  0  0  0  0  0  0  0
   13.3160   22.9472   15.6133 O   0  0  0  0  0  0  0  0  0  0  0  0
   11.7169   14.7295   10.7752 O   0  0  0  0  0  0  0  0  0  0  0  0
   12.2567   18.4237   16.9585 O   0  0  0  0  0  0  0  0  0  0  0  0
   14.4874   20.2680   15.5338 O   0  0  0  0  0  0  0  0  0  0  0  0
    9.2463   13.1559   14.4142 C   0  0  0  0  0  0  0  0  0  0  0  0
   15.6547   22.4874   15.3689 O   0  0  0  0  0  0  0  0  0  0  0  0
    6.8775   12.8836   16.6198 N   0  0  0  0  0  0  0  0  0  0  0  0
   13.0121   17.0895   13.7188 C   0  0  0  0  0  0  0  0  0  0  0  0
  3  1  1  0
  5  4  2  3
  6  2  2  0
  7  1  1  0
  8  6  1  0
  1 10  1  1
 10  4  1  0
 12  3  1  0
 12  7  1  0
 13 11  1  0
 14 13  1  0
 15  9  1  0
 16  9  1  0
 12 17  1  6
 18 13  1  0
  3 19  1  6
 20  9  1  0
 21  9  1  0
 21 13  1  0
 22  2  1  0
 22  8  2  0
 22 10  1  0
 23 13  1  0
 24  8  1  0
 25 12  1  0
 25 15  1  0
M  END
>  <ID>  (1) 
conformer_0

$$$$
