
     RDKit          3D

 29 31  0  0  0  0  0  0  0  0999 V2000
   11.3798   14.3319   12.4197 C   0  0  1  0  0  0  0  0  0  0  0  0
    8.5889   11.5996   13.3522 C   0  0  0  0  0  0  0  0  0  0  0  0
   11.3795   15.7672   12.1403 C   0  0  0  0  0  0  0  0  0  0  0  0
    9.8744   14.5559   14.9756 C   0  0  0  0  0  0  0  0  0  0  0  0
    9.2164   14.4911   15.6986 N   0  0  0  0  0  0  0  0  0  0  0  0
    7.3615   11.2961   14.3512 N   0  0  0  0  0  0  0  0  0  0  0  0
   12.6693   14.6970   13.4479 O   0  0  0  0  0  0  0  0  0  0  0  0
   12.4285   16.2345   12.7792 C   0  0  2  0  0  0  0  0  0  0  0  0
   13.3279   20.4721   17.6718 O   0  0  0  0  0  0  0  0  0  0  0  0
   12.4740   18.2470   15.9129 P   0  0  1  0  0  4  0  0  0  0  0  0
    7.9995   12.7114   15.2678 C   0  0  0  0  0  3  0  0  0  0  0  0
    6.7649   12.4784   16.1794 N   0  0  0  0  0  0  0  0  0  0  0  0
   11.5052   17.2676   11.3530 O   0  0  0  0  0  0  0  0  0  0  0  0
   10.4198   14.0053   13.8017 N   0  0  0  0  0  0  0  0  0  0  0  0
   11.6952   18.2088   16.8848 O   0  0  0  0  0  0  0  0  0  0  0  0
   12.5069   17.0753   15.0661 O   0  0  0  0  0  0  0  0  0  0  0  0
   15.5149   19.7515   17.7319 O   0  0  0  0  0  0  0  0  0  0  0  0
   14.4622   20.6938   15.5311 O   0  0  0  0  0  0  0  0  0  0  0  0
   14.3900   22.3354   15.3682 P   0  0  0  0  0  5  0  0  0  0  0  0
   13.5366   23.0273   16.2232 O   0  0  0  0  0  0  0  0  0  0  0  0
   11.2258   14.9330   10.6736 O   0  0  0  0  0  0  0  0  0  0  0  0
   15.8524   22.5400   15.9259 O   0  0  0  0  0  0  0  0  0  0  0  0
    9.3276   13.1217   14.2084 C   0  0  0  0  0  0  0  0  0  0  0  0
   13.5097   16.6121   14.1382 C   0  0  0  0  0  0  0  0  0  0  0  0
   14.4756   20.0151   16.8685 P   0  0  0  0  0  0  0  0  0  0  0  0
   14.0310   22.2528   13.9089 O   0  0  0  0  0  0  0  0  0  0  0  0
   12.0705   19.1801   14.9919 O   0  0  0  0  0  1  0  0  0  0  0  0
    8.9424   11.8482   13.2201 N   0  0  0  0  0  0  0  0  0  0  0  0
   14.0711   18.5303   16.3123 O   0  0  0  0  0  0  0  0  0  0  0  0
  3  1  1  0
  5  4  2  3
  6  2  2  0
  7  1  1  0
  8  3  1  0
  8  7  1  0
 11  6  1  0
 12 11  1  0
 13  3  1  0
  1 14  1  1
 14  4  1  0
 10 15  1  1
 16 10  1  0
 19 17  1  0
 19 18  1  0
 20 19  1  0
 21  3  1  0
 22 19  1  0
 23  4  1  0
 23 11  1  0
 23 14  1  0
  8 24  1  1
 24 16  1  0
 25  9  1  0
 25 17  1  0
 26 19  1  0
 27 10  1  0
 28  2  1  0
 28 23  1  0
 29 10  1  0
 29 25  1  0
M  RAD  3  10   2  11   2  27   2
M  END
>  <ID>  (1) 
conformer_0

$$$$
