
     RDKit          3D

 29 29  0  0  0  0  0  0  0  0999 V2000
    9.1095   12.8964   14.1660 C   0  0  0  0  0  0  0  0  0  0  0  0
   12.5707   16.6780   12.7978 C   0  0  2  0  0  0  0  0  0  0  0  0
   11.5378   15.6534   12.1633 C   0  0  1  0  0  0  0  0  0  0  0  0
    9.7602   14.1888   14.7111 C   0  0  0  0  0  0  0  0  0  0  0  0
    7.4289   10.9587   13.9962 N   0  0  0  0  0  0  0  0  0  0  0  0
   12.5119   14.7661   13.5162 O   0  0  0  0  0  0  0  0  0  0  0  0
    8.9122   13.8861   15.5141 N   0  0  0  0  0  0  0  0  0  0  0  0
   11.3534   17.9279   16.7526 O   0  0  0  0  0  0  0  0  0  0  0  0
   10.3321   14.0679   13.8043 N   0  0  0  0  0  0  0  0  0  0  0  0
    7.7284   12.2784   15.0889 C   0  0  0  0  0  0  0  0  0  0  0  0
   14.2225   22.1763   15.0294 P   0  0  2  0  0  4  0  0  0  0  0  0
   12.3299   16.9222   15.1513 O   0  0  0  0  0  0  0  0  0  0  0  0
   12.8144   19.6413   17.2883 O   0  0  0  0  0  0  0  0  0  0  0  0
   14.0961   18.2316   16.3674 O   0  0  0  0  0  0  0  0  0  0  0  0
   13.0998   16.6931   13.8701 C   0  0  0  0  0  0  0  0  0  0  0  0
   12.2982   18.0848   15.9553 P   0  0  2  0  0  4  0  0  0  0  0  0
   14.8278   20.8386   15.6018 O   0  0  0  0  0  0  0  0  0  0  0  0
    6.3945   11.8672   15.7593 N   0  0  0  0  0  0  0  0  0  0  0  0
   13.6612   23.0529   15.5586 O   0  0  0  0  0  0  0  0  0  0  0  0
   11.6707   17.4944   11.4598 O   0  0  0  0  0  0  0  0  0  0  0  0
    9.2642   11.8913   12.8103 N   0  0  0  0  0  0  0  0  0  0  0  0
   14.1942   21.9687   13.6424 O   0  0  0  0  0  1  0  0  0  0  0  0
   14.3617   20.0189   16.8614 P   0  0  0  0  0  5  0  0  0  0  0  0
    8.5468   11.4553   13.2011 C   0  0  0  0  0  0  0  0  0  0  0  0
   11.3170   15.3737   10.8702 O   0  0  0  0  0  0  0  0  0  0  0  0
   12.2201   19.0994   14.9314 O   0  0  0  0  0  1  0  0  0  0  0  0
   11.2758   14.4603   12.6475 C   0  0  1  0  0  0  0  0  0  0  0  0
   15.3917   19.5948   17.6458 O   0  0  0  0  0  0  0  0  0  0  0  0
   13.8384   21.4736   17.3975 O   0  0  0  0  0  0  0  0  0  0  0  0
  3  2  1  0
  4  1  1  0
  7  4  2  3
  9  4  1  0
 10  1  2  0
 10  5  1  0
 15  2  1  0
 15 12  1  0
 16  8  1  1
 16 12  1  0
 16 14  1  0
 17 11  1  0
 18 10  1  0
 11 19  1  1
  2 20  1  1
 21  1  1  0
 22 11  1  0
 23 13  1  0
 23 14  1  0
 23 17  1  0
 24  5  2  0
 24 21  1  0
  3 25  1  6
 26 16  1  0
 27  3  1  0
 27  6  1  1
 27  9  1  0
 28 23  1  0
 29 23  1  0
M  RAD  4  11   2  16   2  22   2  26   2
M  END
>  <ID>  (1) 
conformer_0

$$$$
