
     RDKit          3D

 27 28  0  0  0  0  0  0  0  0999 V2000
   11.4335   14.3380   12.3004 C   0  0  1  0  0  0  0  0  0  0  0  0
    8.4700   11.4533   13.2399 C   0  0  0  0  0  0  0  0  0  0  0  0
   11.0966   15.5171   12.0863 C   0  0  0  0  0  0  0  0  0  0  0  0
    9.9294   14.4891   14.9462 C   0  0  0  0  0  0  0  0  0  0  0  0
    9.2264   14.1912   15.7387 N   0  0  0  0  0  0  0  0  0  0  0  0
    7.6146   11.0586   13.9662 N   0  0  0  0  0  0  0  0  0  0  0  0
   12.6195   14.7805   13.5861 O   0  0  0  0  0  0  0  0  0  0  0  0
   12.2136   16.1916   12.5300 C   0  0  1  0  0  0  0  0  0  0  0  0
   12.9677   18.0778   15.2010 O   0  0  0  0  0  0  0  0  0  0  0  0
   14.3822   20.2322   17.1482 P   0  0  0  0  0  0  0  0  0  0  0  0
   11.8734   18.4682   16.7966 O   0  0  0  0  0  0  0  0  0  0  0  0
   13.4509   20.7267   17.9806 O   0  0  0  0  0  0  0  0  0  0  0  0
   14.2492   22.1934   14.7985 P   0  0  0  0  0  4  0  0  0  0  0  0
   10.3078   14.0322   13.8786 N   0  0  0  0  0  0  0  0  0  0  0  0
    8.0702   12.4502   15.1398 C   0  0  0  0  0  0  0  0  0  0  0  0
   14.9713   19.2477   17.5881 O   0  0  0  0  0  0  0  0  0  0  0  0
   13.8716   22.1302   13.7222 O   0  0  0  0  0  1  0  0  0  0  0  0
   13.5300   23.1156   15.8675 O   0  0  0  0  0  0  0  0  0  0  0  0
    6.7377   11.9426   16.0257 N   0  0  0  0  0  0  0  0  0  0  0  0
   11.7474   14.7112   10.5641 O   0  0  0  0  0  0  0  0  0  0  0  0
   15.7994   22.2410   15.1440 O   0  0  0  0  0  0  0  0  0  0  0  0
   11.7444   17.0838   11.3354 O   0  0  0  0  0  0  0  0  0  0  0  0
    9.3161   12.0012   12.7513 N   0  0  0  0  0  0  0  0  0  0  0  0
   14.0558   20.2392   15.6204 O   0  0  0  0  0  1  0  0  0  0  0  0
    9.3321   13.0847   14.2724 C   0  0  2  0  0  0  0  0  0  0  0  0
   13.2384   16.6792   13.7297 C   0  0  0  0  0  0  0  0  0  0  0  0
   12.8888   18.5324   15.9397 P   0  0  1  0  0  4  0  0  0  0  0  0
  3  1  1  0
  5  4  2  3
  6  2  1  0
  7  1  1  0
  8  3  1  0
  8  7  1  0
 12 10  1  0
 13 10  1  0
 14  1  1  0
 14  4  1  0
 15  6  1  0
 16 10  1  0
 17 13  1  0
 18 13  1  0
 19 15  2  3
  1 20  1  6
 21 13  1  0
  8 22  1  6
 23  2  3  0
 25  4  1  0
 25 14  1  6
 25 15  1  0
 26  8  1  0
 26  9  1  0
 27  9  1  0
 27 11  1  1
 27 16  1  0
 27 24  1  0
M  RAD  4  13   2  17   2  24   2  27   2
M  END
>  <ID>  (1) 
conformer_0

$$$$
