
     RDKit          3D

 28 28  0  0  0  0  0  0  0  0999 V2000
   11.3409   15.5098   11.8944 C   0  0  1  0  0  0  0  0  0  0  0  0
    9.1941   13.0172   14.1975 C   0  0  2  0  0  0  0  0  0  0  0  0
   12.3861   16.5269   12.6545 C   0  0  2  0  0  0  0  0  0  0  0  0
    9.8375   14.3645   14.7174 C   0  0  0  0  0  0  0  0  0  0  0  0
    9.1357   14.2752   15.4948 N   0  0  0  0  0  0  0  0  0  0  0  0
    7.3866   11.2371   14.1883 N   0  0  0  0  0  0  0  0  0  0  0  0
   12.7313   14.7641   13.3869 O   0  0  0  0  0  0  0  0  0  0  0  0
   11.3971   17.9719   16.7327 O   0  0  0  0  0  0  0  0  0  0  0  0
   12.4333   18.2735   16.0231 P   0  0  2  0  0  4  0  0  0  0  0  0
   13.2822   20.7290   17.8285 O   0  0  0  0  0  0  0  0  0  0  0  0
   12.0018   17.4134   11.2632 O   0  0  0  0  0  0  0  0  0  0  0  0
    7.7641   12.6165   15.3149 C   0  0  0  0  0  0  0  0  0  0  0  0
   14.6790   18.7439   17.5399 O   0  0  0  0  0  0  0  0  0  0  0  0
   13.3301   22.6575   15.3997 O   0  0  0  0  0  0  0  0  0  0  0  0
   13.1944   16.6792   13.6352 C   0  0  0  0  0  0  0  0  0  0  0  0
   11.3990   14.7049   10.5669 O   0  0  0  0  0  0  0  0  0  0  0  0
   10.4317   13.8842   13.5810 N   0  0  0  0  0  0  0  0  0  0  0  0
   14.5842   21.9044   14.9958 P   0  0  0  0  0  4  0  0  0  0  0  0
   15.1614   20.6568   16.2100 O   0  0  0  0  0  0  0  0  0  0  0  0
   13.1190   19.4328   15.5056 O   0  0  0  0  0  1  0  0  0  0  0  0
   14.6445   21.6065   13.7019 O   0  0  0  0  0  1  0  0  0  0  0  0
    6.6549   12.0920   16.0345 N   0  0  0  0  0  0  0  0  0  0  0  0
    9.1029   11.7842   12.9445 N   0  0  0  0  0  0  0  0  0  0  0  0
    8.5442   11.5979   13.4221 C   0  0  0  0  0  0  0  0  0  0  0  0
   14.3121   19.9928   17.0446 P   0  0  0  0  0  0  0  0  0  0  0  0
   11.5315   14.1973   12.4454 C   0  0  1  0  0  0  0  0  0  0  0  0
   15.4844   22.5934   15.5397 O   0  0  0  0  0  0  0  0  0  0  0  0
   12.5651   17.5400   15.1773 O   0  0  0  0  0  0  0  0  0  0  0  0
  3  1  1  0
  4  2  1  0
  5  4  2  3
  9  8  1  1
  3 11  1  6
 12  6  2  3
 13  9  1  0
 15  3  1  0
  1 16  1  6
  2 17  1  1
 17  4  1  0
 18 14  1  0
 19 18  1  0
 20  9  1  0
 21 18  1  0
 22 12  1  0
 24  2  1  0
 24  6  1  0
 24 23  2  3
 25 10  1  0
 25 13  1  0
 25 19  1  0
 26  1  1  0
 26  7  1  1
 26 17  1  0
 27 18  1  0
 28  9  1  0
 28 15  1  0
M  RAD  4   9   2  18   2  20   2  21   2
M  END
>  <ID>  (1) 
conformer_0

$$$$
