
     RDKit          3D

 30 33  0  0  0  0  0  0  0  0999 V2000
    9.4266   13.0059   14.0588 C   0  0  1  0  0  0  0  0  0  0  0  0
   11.5382   14.0378   12.5043 C   0  0  1  0  0  0  0  0  0  0  0  0
   11.0850   15.3184   11.8629 C   0  0  2  0  0  0  0  0  0  0  0  0
    9.9750   14.4114   14.7932 C   0  0  0  0  0  0  0  0  0  0  0  0
    9.2304   14.1941   15.6146 N   0  0  0  0  0  0  0  0  0  0  0  0
    7.5255   11.1609   14.1864 N   0  0  0  0  0  0  0  0  0  0  0  0
   12.6122   14.6747   13.4948 O   0  0  0  0  0  0  0  0  0  0  0  0
   12.5291   18.2502   15.9603 P   0  0  0  0  0  5  0  0  0  0  0  0
   13.3391   20.4340   17.7777 O   0  0  0  0  0  0  0  0  0  0  0  0
   10.4247   13.9489   13.6357 N   0  0  0  0  0  0  0  0  0  0  0  0
   14.3719   22.4189   15.0943 P   0  0  0  0  0  4  0  0  0  0  0  0
   11.7090   18.3388   16.8689 O   0  0  0  0  0  0  0  0  0  0  0  0
   11.9301   16.8079   12.7358 C   0  0  1  0  0  0  0  0  0  0  0  0
   15.4803   19.7871   17.5367 O   0  0  0  0  0  0  0  0  0  0  0  0
   11.9290   14.7103   10.5723 O   0  0  0  0  0  0  0  0  0  0  0  0
   13.9883   22.4454   13.6680 O   0  0  0  0  0  1  0  0  0  0  0  0
   14.1570   18.2585   16.6256 O   0  0  0  0  0  0  0  0  0  0  0  0
    8.1294   12.5376   15.1459 C   0  0  0  0  0  0  0  0  0  0  0  0
   13.5857   23.2666   16.1841 O   0  0  0  0  0  0  0  0  0  0  0  0
   11.5025   17.1650   11.3349 O   0  0  0  0  0  0  0  0  0  0  0  0
    6.9125   12.0825   15.9807 N   0  0  0  0  0  0  0  0  0  0  0  0
    9.3359   11.9999   12.7638 N   0  0  0  0  0  0  0  0  0  0  0  0
   15.7687   22.8382   15.2127 O   0  0  0  0  0  0  0  0  0  0  0  0
   14.4588   20.9802   15.7497 O   0  0  0  0  0  0  0  0  0  0  0  0
   14.3103   20.0660   16.9794 P   0  0  0  0  0  0  0  0  0  0  0  0
    8.4353   11.4273   13.4049 C   0  0  0  0  0  0  0  0  0  0  0  0
   12.4168   19.3055   15.0568 O   0  0  0  0  0  0  0  0  0  0  0  0
   12.4154   17.1965   15.0294 O   0  0  0  0  0  0  0  0  0  0  0  0
   12.7463   15.6684   12.3899 C   0  0  2  0  0  0  0  0  0  0  0  0
   13.2344   16.8484   13.9859 C   0  0  0  0  0  0  0  0  0  0  0  0
  3  2  1  0
  4  1  1  0
  5  4  2  3
  7  2  1  0
 10  1  1  0
  2 10  1  1
 10  4  1  0
 12  8  1  0
 13  3  1  0
 14  8  1  0
  3 15  1  1
 16 11  1  0
 17  8  1  0
 18  1  1  0
 18  6  2  0
 19 11  1  0
 13 20  1  6
 21 18  1  0
  1 22  1  1
 23 11  1  0
 24 11  1  0
 25  9  1  0
 25 14  1  0
 25 24  1  0
 26  6  1  0
 26 22  1  0
 27  8  1  0
 28  8  1  0
 29  3  1  0
 29  7  1  1
 29 13  1  0
 30 13  1  0
 30 28  1  0
M  RAD  2  11   2  16   2
M  END
>  <ID>  (1) 
conformer_0

$$$$
