
     RDKit          3D

 26 28  0  0  0  0  0  0  0  0999 V2000
   11.5961   15.9208   12.2250 C   0  0  0  0  0  0  0  0  0  0  0  0
    9.4671   13.1686   14.2677 C   0  0  1  0  0  0  0  0  0  0  0  0
   12.7292   16.5334   12.9873 C   0  0  2  0  0  0  0  0  0  0  0  0
    9.4059   14.3434   15.7867 N   0  0  0  0  0  0  0  0  0  0  0  0
    8.0389   12.6770   15.2704 C   0  0  0  0  0  0  0  0  0  0  0  0
   12.9641   14.9098   13.6046 O   0  0  0  0  0  0  0  0  0  0  0  0
    7.4076   11.1963   14.1450 N   0  0  0  0  0  0  0  0  0  0  0  0
   13.6367   17.1251   14.0778 C   0  0  0  0  0  0  0  0  0  0  0  0
   10.6527   14.0059   13.7368 N   0  0  0  0  0  0  0  0  0  0  0  0
   14.9856   19.1938   17.3810 O   0  0  0  0  0  0  0  0  0  0  0  0
   13.6957   19.2916   16.4277 P   0  0  0  0  0  5  0  0  0  0  0  0
   13.4172   20.7564   17.7011 O   0  0  0  0  0  0  0  0  0  0  0  0
   10.2069   14.5161   15.0052 C   0  0  0  0  0  0  0  0  0  0  0  0
   11.6288   17.3133   11.5136 O   0  0  0  0  0  0  0  0  0  0  0  0
   13.1773   18.1084   15.3914 O   0  0  0  0  0  0  0  0  0  0  0  0
   13.6836   23.3332   16.0809 O   0  0  0  0  0  0  0  0  0  0  0  0
   14.2627   22.1645   15.3316 P   0  0  0  0  0  5  0  0  0  0  0  0
   14.2665   20.5477   15.5558 O   0  0  0  0  0  0  0  0  0  0  0  0
    6.5600   11.8359   15.6266 N   0  0  0  0  0  0  0  0  0  0  0  0
   11.4231   15.2480   10.8271 O   0  0  0  0  0  0  0  0  0  0  0  0
   13.8245   22.4907   13.9737 O   0  0  0  0  0  0  0  0  0  0  0  0
    8.5492   11.7223   13.5430 C   0  0  0  0  0  0  0  0  0  0  0  0
   11.5836   14.5778   12.5429 C   0  0  1  0  0  0  0  0  0  0  0  0
   12.3792   18.8661   16.9343 O   0  0  0  0  0  0  0  0  0  0  0  0
    9.0856   12.0832   13.0292 N   0  0  0  0  0  0  0  0  0  0  0  0
   15.8198   22.1546   16.2220 O   0  0  0  0  0  0  0  0  0  0  0  0
  3  1  1  0
  2  5  1  6
  6  3  1  0
  3  8  1  1
  9  2  1  0
 11 10  1  0
 12 11  1  0
 13  2  1  0
 13  4  2  3
 13  9  1  0
 14  1  1  0
 15  8  1  0
 15 11  1  0
 17 10  1  0
 17 16  1  0
 18 17  1  0
 19  5  1  0
 19  7  1  0
 20  1  1  0
 21 17  1  0
 22  7  1  0
 23  1  1  0
 23  6  1  0
 23  9  1  1
 24 11  1  0
 25  2  1  0
 25 22  1  0
 26 17  1  0
M  END
>  <ID>  (1) 
conformer_0

$$$$
