
     RDKit          3D

 26 28  0  0  0  0  0  0  0  0999 V2000
   11.2838   14.2271   12.4972 C   0  0  1  0  0  0  0  0  0  0  0  0
    9.1180   13.1019   14.3600 C   0  0  2  0  0  0  0  0  0  0  0  0
   11.4255   15.4621   12.0465 C   0  0  0  0  0  0  0  0  0  0  0  0
    9.8715   14.3996   14.8415 C   0  0  0  0  0  0  0  0  0  0  0  0
    9.2388   11.9300   12.8691 N   0  0  0  0  0  0  0  0  0  0  0  0
    9.0425   14.0104   15.7318 N   0  0  0  0  0  0  0  0  0  0  0  0
   12.5885   14.5429   13.5557 O   0  0  0  0  0  0  0  0  0  0  0  0
   13.6228   19.0050   16.3276 P   0  0  0  0  0  5  0  0  0  0  0  0
   12.5200   16.1809   12.6901 C   0  0  2  0  0  0  0  0  0  0  0  0
   10.2429   13.9304   13.8105 N   0  0  0  0  0  0  0  0  0  0  0  0
   14.4122   21.9731   15.1784 P   0  0  0  0  0  5  0  0  0  0  0  0
    6.5895   12.1715   15.9388 N   0  0  0  0  0  0  0  0  0  0  0  0
   11.9357   18.4769   16.6826 O   0  0  0  0  0  0  0  0  0  0  0  0
   14.2521   20.3664   15.5327 O   0  0  0  0  0  0  0  0  0  0  0  0
   11.5806   17.2137   11.3832 O   0  0  0  0  0  0  0  0  0  0  0  0
   13.0841   17.6754   15.2906 O   0  0  0  0  0  0  0  0  0  0  0  0
    7.7974   12.4582   15.1598 C   0  0  0  0  0  0  0  0  0  0  0  0
   14.8662   18.9436   17.2994 O   0  0  0  0  0  0  0  0  0  0  0  0
   13.3144   20.5338   17.5849 O   0  0  0  0  0  0  0  0  0  0  0  0
   11.5319   14.6700   10.6077 O   0  0  0  0  0  0  0  0  0  0  0  0
   13.5698   23.2706   15.8597 O   0  0  0  0  0  0  0  0  0  0  0  0
   14.1645   22.1209   13.7610 O   0  0  0  0  0  0  0  0  0  0  0  0
   15.8762   22.4714   15.4229 O   0  0  0  0  0  0  0  0  0  0  0  0
    7.3898   11.1720   14.1165 N   0  0  0  0  0  0  0  0  0  0  0  0
    8.3126   11.4091   13.3609 C   0  0  0  0  0  0  0  0  0  0  0  0
   13.4208   16.3231   14.0750 C   0  0  0  0  0  0  0  0  0  0  0  0
  3  1  1  0
  4  2  1  0
  6  2  1  0
  6  4  2  0
  7  1  1  0
  9  3  1  0
  9  7  1  0
  1 10  1  1
  2 10  1  1
 10  4  1  0
 13  8  1  0
 14 11  1  0
 15  3  1  0
 16  8  1  0
 17  2  1  0
 17 12  2  3
 18  8  1  0
 18 11  1  0
 19  8  1  0
 20  3  1  0
 21 11  1  0
 22 11  1  0
 23 11  1  0
 24 17  1  0
 25  5  3  0
 25 24  1  0
  9 26  1  1
 26 16  1  0
M  END
>  <ID>  (1) 
conformer_0

$$$$
