
     RDKit          3D

 29 31  0  0  0  0  0  0  0  0999 V2000
    8.5684   11.7540   13.3773 C   0  0  0  0  0  0  0  0  0  0  0  0
   11.3375   14.4632   12.6595 C   0  0  1  0  0  0  0  0  0  0  0  0
   11.3822   15.7304   12.1058 C   0  0  0  0  0  0  0  0  0  0  0  0
    9.9731   14.6804   14.9587 C   0  0  0  0  0  0  0  0  0  0  0  0
    7.4362   11.3284   14.2496 N   0  0  0  0  0  0  0  0  0  0  0  0
    9.2318   14.4067   15.6540 N   0  0  0  0  0  0  0  0  0  0  0  0
   12.6269   14.7223   13.4851 O   0  0  0  0  0  0  0  0  0  0  0  0
    8.2131   10.6947   12.3561 N   0  0  0  0  0  0  0  0  0  0  0  0
   10.3908   14.1223   13.8459 N   0  0  0  0  0  0  0  0  0  0  0  0
   12.8548   18.3809   15.9794 P   0  0  0  0  0  5  0  0  0  0  0  0
   13.2965   20.4359   17.4779 O   0  0  0  0  0  0  0  0  0  0  0  0
    8.0850   12.6908   15.2266 C   0  0  0  0  0  0  0  0  0  0  0  0
   13.4311   21.7341   13.5341 O   0  0  0  0  0  1  0  0  0  0  0  0
   13.2017   17.2911   15.6471 O   0  0  0  0  0  0  0  0  0  0  0  0
   14.8194   18.5854   17.4101 O   0  0  0  0  0  0  0  0  0  0  0  0
   12.4342   16.3642   12.6992 C   0  0  2  0  0  0  0  0  0  0  0  0
   11.8685   18.4277   16.7970 O   0  0  0  0  0  0  0  0  0  0  0  0
   11.7059   17.2687   11.4403 O   0  0  0  0  0  0  0  0  0  0  0  0
   14.3397   22.0274   14.9318 P   0  0  0  0  0  4  0  0  0  0  0  0
   13.6551   22.8024   15.9503 O   0  0  0  0  0  0  0  0  0  0  0  0
   15.8347   21.0390   17.0810 O   0  0  0  0  0  0  0  0  0  0  0  0
   11.3467   14.9683   10.7491 O   0  0  0  0  0  0  0  0  0  0  0  0
   15.7254   22.2958   14.9115 O   0  0  0  0  0  0  0  0  0  0  0  0
   14.6960   20.2638   17.0034 P   0  0  0  0  0  0  0  0  0  0  0  0
   14.2054   19.7417   15.5823 O   0  0  0  0  0  0  0  0  0  0  0  0
    9.3325   13.1821   14.1845 C   0  0  2  0  0  0  0  0  0  0  0  0
    9.5601   12.1139   12.7893 N   0  0  0  0  0  0  0  0  0  0  0  0
   11.9509   18.4501   14.6799 O   0  0  0  0  0  0  0  0  0  0  0  0
   13.2111   16.7835   13.7775 C   0  0  0  0  0  0  0  0  0  0  0  0
  3  2  1  0
  5  1  1  0
  6  4  2  3
  7  2  1  0
  8  1  1  0
  2  9  1  1
  9  4  1  0
 12  5  2  0
 14 10  1  0
 15 10  1  0
 16  3  1  0
 16  7  1  0
 17 10  1  0
 18  3  1  0
 19 13  1  0
 20 19  1  0
 21 19  1  0
 22  3  1  0
 23 19  1  0
 24 11  1  0
 24 21  1  0
 25 10  1  0
 25 24  1  0
 26  1  1  0
 26  4  1  0
 26  9  1  1
 26 12  1  0
 27  1  1  0
 28 10  1  0
 29 14  1  0
 16 29  1  1
M  RAD  2  13   2  19   2
M  END
>  <ID>  (1) 
conformer_0

$$$$
