
     RDKit          3D

 27 27  0  0  0  0  0  0  0  0999 V2000
    7.8054   12.3349   15.0223 C   0  0  0  0  0  0  0  0  0  0  0  0
   11.3238   14.5123   12.7290 C   0  0  1  0  0  0  0  0  0  0  0  0
   11.6502   15.6855   12.1623 C   0  0  0  0  0  0  0  0  0  0  0  0
    8.4229   11.4182   13.3293 C   0  0  0  0  0  0  0  0  0  0  0  0
   12.4991   14.6403   13.5728 O   0  0  0  0  0  0  0  0  0  0  0  0
    8.8601   14.1577   15.5761 N   0  0  0  0  0  0  0  0  0  0  0  0
    7.2153   10.9282   14.1378 N   0  0  0  0  0  0  0  0  0  0  0  0
   14.7671   18.8716   17.3624 O   0  0  0  0  0  0  0  0  0  0  0  0
   13.2968   20.4949   17.4502 O   0  0  0  0  0  0  0  0  0  0  0  0
   12.6236   16.3971   13.0143 C   0  0  2  0  0  0  0  0  0  0  0  0
   10.2935   14.0728   13.9543 N   0  0  0  0  0  0  0  0  0  0  0  0
   11.6533   18.3934   16.8951 O   0  0  0  0  0  0  0  0  0  0  0  0
    9.1679   13.0406   14.2239 C   0  0  0  0  0  0  0  0  0  0  0  0
   12.3696   17.2311   15.2731 O   0  0  0  0  0  0  0  0  0  0  0  0
   12.4706   18.2846   16.0345 P   0  0  2  0  0  4  0  0  0  0  0  0
    6.9137   11.9285   15.8762 N   0  0  0  0  0  0  0  0  0  0  0  0
   11.6099   14.9106   10.7450 O   0  0  0  0  0  0  0  0  0  0  0  0
   13.5096   21.6809   13.7575 O   0  0  0  0  0  1  0  0  0  0  0  0
   14.2289   21.6384   14.4748 P   0  0  1  0  0  4  0  0  0  0  0  0
   14.4401   22.7905   15.8826 O   0  0  0  0  0  0  0  0  0  0  0  0
    9.7956   14.5578   14.9300 C   0  0  0  0  0  0  0  0  0  0  0  0
    9.0158   11.7809   12.9278 N   0  0  0  0  0  0  0  0  0  0  0  0
   11.8383   17.1392   11.3206 O   0  0  0  0  0  0  0  0  0  0  0  0
   14.7300   20.6011   15.4704 O   0  0  0  0  0  0  0  0  0  0  0  0
   14.4512   20.0494   16.8972 P   0  0  0  0  0  0  0  0  0  0  0  0
   13.1793   16.6369   14.3617 C   0  0  0  0  0  0  0  0  0  0  0  0
   12.5870   19.2210   15.1397 O   0  0  0  0  0  1  0  0  0  0  0  0
  3  2  1  0
  5  2  1  0
  7  1  1  0
  7  4  1  0
 10  3  1  0
 10  5  1  0
  2 11  1  1
 13  1  1  0
 13 11  1  0
 15  8  1  0
 15 12  1  1
 15 14  1  0
 16  1  2  3
 17  3  1  0
 19 18  1  1
 20 19  1  0
 21  6  2  3
 21 11  1  0
 22  4  3  0
 23  3  1  0
 24 19  1  0
 25  8  1  0
 25  9  1  0
 25 24  1  0
 10 26  1  1
 26 14  1  0
 27 15  1  0
M  RAD  4  15   2  18   2  19   2  27   2
M  END
>  <ID>  (1) 
conformer_0

$$$$
