
     RDKit          3D

 30 32  0  0  0  0  0  0  0  0999 V2000
   11.7408   15.6677   12.2244 C   0  0  0  0  0  0  0  0  0  0  0  0
    8.6288   13.0282   14.9525 C   0  0  0  0  0  3  0  0  0  0  0  0
   11.5285   14.4992   12.6350 C   0  0  0  0  0  0  0  0  0  0  0  0
   10.0870   14.7797   15.0689 C   0  0  0  0  0  0  0  0  0  0  0  0
    8.9220   14.1402   15.6955 N   0  0  0  0  0  0  0  0  0  0  0  0
    7.1986   10.8195   14.1641 N   0  0  0  0  0  0  0  0  0  0  0  0
   12.6966   14.8318   13.6929 O   0  0  0  0  0  0  0  0  0  0  0  0
   12.5671   16.6386   12.8063 C   0  0  0  0  0  0  0  0  0  0  0  0
   10.3896   14.1336   14.0626 N   0  0  0  0  0  0  0  0  0  0  0  0
    7.4463   12.0673   15.0657 C   0  0  0  0  0  0  0  0  0  0  0  0
   14.5033   20.1758   16.7056 P   0  0  0  0  0  0  0  0  0  0  0  0
   12.9171   17.3421   15.5493 O   0  0  0  0  0  0  0  0  0  0  0  0
   13.0891   20.3744   17.3699 O   0  0  0  0  0  0  0  0  0  0  0  0
   11.6395   18.2495   16.8874 O   0  0  0  0  0  0  0  0  0  0  0  0
   13.7740   22.2347   13.7507 O   0  0  0  0  0  1  0  0  0  0  0  0
   11.7648   17.5777   11.3592 O   0  0  0  0  0  0  0  0  0  0  0  0
    6.4849   11.9281   15.8898 N   0  0  0  0  0  0  0  0  0  0  0  0
   15.1918   19.5483   17.4902 O   0  0  0  0  0  0  0  0  0  0  0  0
   16.1271   22.0084   15.0521 O   0  0  0  0  0  0  0  0  0  0  0  0
   14.6014   22.1340   14.7850 P   0  0  0  0  0  4  0  0  0  0  0  0
   13.7890   22.6777   15.9879 O   0  0  0  0  0  0  0  0  0  0  0  0
   11.5859   15.2192   10.7946 O   0  0  0  0  0  0  0  0  0  0  0  0
    8.4206   11.1177   13.0136 C   0  0  0  0  0  0  0  0  0  0  0  0
   14.4372   20.2403   15.5490 O   0  0  0  0  0  0  0  0  0  0  0  0
   13.4454   16.9706   14.1202 C   0  0  0  0  0  0  0  0  0  0  0  0
    9.7809   12.1439   12.7750 N   0  0  0  0  0  0  0  0  0  0  0  0
   12.4564   18.3549   16.1285 P   0  0  0  0  0  0  0  0  0  0  0  0
    8.7048   11.6949   13.1536 N   0  0  0  0  0  0  0  0  0  0  0  0
   12.2011   19.0103   15.1744 O   0  0  0  0  0  0  0  0  0  0  0  0
    9.4659   12.9472   13.8624 C   0  0  0  0  0  0  0  0  0  0  0  0
  3  1  1  0
  5  2  1  0
  5  4  2  0
  7  3  1  0
  8  1  1  0
  9  3  1  0
  9  4  1  0
 10  2  1  0
 10  6  2  0
 13 11  1  0
 16  8  1  0
 17 10  1  0
 18 11  1  0
 20 15  1  0
 20 19  1  0
 21 20  1  0
 22  1  1  0
 23  6  1  0
 24 11  1  0
 24 20  1  0
 25  8  1  0
 25 12  1  0
 27 14  1  0
 27 18  1  0
 28 23  1  0
 28 26  1  0
 29 25  1  0
 29 27  1  0
 30  2  1  0
 30  9  1  0
 30 26  1  0
 30 28  1  0
M  RAD  3   2   2  15   2  20   2
M  END
>  <ID>  (1) 
conformer_0

$$$$
