
     RDKit          3D

 31 32  0  0  0  0  0  0  0  0999 V2000
   11.3230   13.8782   12.7525 C   0  0  1  0  0  0  0  0  0  0  0  0
    8.6379   11.6022   13.0558 C   0  0  0  0  0  0  0  0  0  0  0  0
   10.9681   14.8951   11.6845 C   0  0  2  0  0  0  0  0  0  0  0  0
    9.8845   14.5764   14.8914 C   0  0  0  0  0  0  0  0  0  0  0  0
    9.1028   14.1862   15.5707 N   0  0  0  0  0  0  0  0  0  0  0  0
    7.5488   11.1340   14.0319 N   0  0  0  0  0  0  0  0  0  0  0  0
    8.2144   10.7123   11.8956 N   0  0  0  0  0  0  0  0  0  0  0  0
   12.6099   14.5037   13.5185 O   0  0  0  0  0  0  0  0  0  0  0  0
   11.3394   17.8772   16.8731 O   0  0  0  0  0  0  0  0  0  0  0  0
   12.8910   15.6425   12.8328 C   0  0  1  0  0  0  0  0  0  0  0  0
   13.3296   20.4910   17.6758 O   0  0  0  0  0  0  0  0  0  0  0  0
   14.6000   20.2084   17.0513 P   0  0  0  0  0  0  0  0  0  0  0  0
   13.7385   18.7910   16.0901 O   0  0  0  0  0  0  0  0  0  0  0  0
    7.9064   12.4242   14.9966 C   0  0  0  0  0  0  0  0  0  0  0  0
   15.5113   19.7751   17.9890 O   0  0  0  0  0  0  0  0  0  0  0  0
   12.3849   18.2258   15.9357 P   0  0  0  0  0  0  0  0  0  0  0  0
   15.9013   22.6699   15.2570 O   0  0  0  0  0  0  0  0  0  0  0  0
   11.7537   16.9847   11.3589 O   0  0  0  0  0  0  0  0  0  0  0  0
   13.9451   22.0935   13.8178 O   0  0  0  0  0  0  0  0  0  0  0  0
   10.2739   13.8934   13.6945 N   0  0  0  0  0  0  0  0  0  0  0  0
   14.6112   22.1945   15.0988 P   0  0  0  0  0  5  0  0  0  0  0  0
   12.3603   16.8793   15.0397 O   0  0  0  0  0  0  0  0  0  0  0  0
   14.9312   20.6414   15.7687 O   0  0  0  0  0  0  0  0  0  0  0  0
   11.7284   14.8595   10.5855 O   0  0  0  0  0  0  0  0  0  0  0  0
   13.8779   22.7097   16.2937 O   0  0  0  0  0  0  0  0  0  0  0  0
    6.7719   11.8901   15.7464 N   0  0  0  0  0  0  0  0  0  0  0  0
    9.2252   13.0598   14.1276 C   0  0  1  0  0  0  0  0  0  0  0  0
   11.6977   16.1160   12.3046 C   0  0  1  0  0  0  0  0  0  0  0  0
   13.4270   16.8774   13.8621 C   0  0  2  0  0  0  0  0  0  0  0  0
   11.8985   19.0180   15.0075 O   0  0  0  0  0  0  0  0  0  0  0  0
    9.4920   12.0907   12.3123 N   0  0  0  0  0  0  0  0  0  0  0  0
  3  1  1  0
  5  4  2  3
  6  2  1  0
  7  2  2  3
  8  1  1  0
 10  8  1  1
 12 11  1  0
 13 12  1  0
 14  6  1  0
 15 12  1  0
 16  9  1  0
 16 13  1  0
  1 20  1  1
 20  4  1  0
 21 15  1  0
 21 17  1  0
 21 19  1  0
 23 21  1  0
  3 24  1  6
 25 21  1  0
 26 14  2  3
 27  4  1  0
 27 14  1  0
 27 20  1  6
 28  3  1  0
 28 10  1  0
 28 18  1  6
 29 10  1  0
 29 22  1  1
 30 16  1  0
 30 29  1  0
 31  2  1  0
M  END
>  <ID>  (1) 
conformer_0

$$$$
