
     RDKit          3D

 25 25  0  0  0  0  0  0  0  0999 V2000
   11.4217   15.6654   12.1433 C   0  0  1  0  0  0  0  0  0  0  0  0
    8.4810   11.4568   13.3503 C   0  0  0  0  0  0  0  0  0  0  0  0
   11.5008   14.4481   12.5063 C   0  0  1  0  0  0  0  0  0  0  0  0
    8.0680   12.5719   15.1521 C   0  0  0  0  0  0  0  0  0  0  0  0
   12.7102   14.9013   13.6539 O   0  0  0  0  0  0  0  0  0  0  0  0
    9.3045   14.4299   15.7738 N   0  0  0  0  0  0  0  0  0  0  0  0
    7.4589   11.0980   14.1518 N   0  0  0  0  0  0  0  0  0  0  0  0
   12.3470   16.5674   12.7415 C   0  0  1  0  0  0  0  0  0  0  0  0
   10.1479   14.7020   15.0699 C   0  0  0  0  0  0  0  0  0  0  0  0
   10.4685   14.0773   13.9193 N   0  0  0  0  0  0  0  0  0  0  0  0
   13.7888   19.2989   16.5499 P   0  0  0  0  0  5  0  0  0  0  0  0
   15.1557   19.1747   17.4870 O   0  0  0  0  0  1  0  0  0  0  0  0
   13.2829   20.5135   17.3396 O   0  0  0  0  0  0  0  0  0  0  0  0
   14.1950   22.0478   14.9623 P   0  0  0  0  0  4  0  0  0  0  0  0
   12.6837   17.9104   15.4680 O   0  0  0  0  0  0  0  0  0  0  0  0
   11.6580   17.6795   11.4742 O   0  0  0  0  0  0  0  0  0  0  0  0
   11.7981   18.5505   16.9172 O   0  0  0  0  0  0  0  0  0  0  0  0
    6.8659   12.1775   16.0764 N   0  0  0  0  0  0  0  0  0  0  0  0
   13.7074   21.9865   13.7416 O   0  0  0  0  0  0  0  0  0  0  0  0
   14.1037   22.7470   15.7176 O   0  0  0  0  0  0  0  0  0  0  0  0
   11.2419   15.2913   10.8531 O   0  0  0  0  0  0  0  0  0  0  0  0
    9.3661   13.1479   14.2933 C   0  0  0  0  0  0  0  0  0  0  0  0
   13.3903   16.9901   13.9942 C   0  0  0  0  0  0  0  0  0  0  0  0
    9.1319   11.9223   12.9583 N   0  0  0  0  0  0  0  0  0  0  0  0
   14.1681   19.9447   15.5922 O   0  0  0  0  0  0  0  0  0  0  0  0
  3  1  1  0
  3  5  1  1
  7  2  1  0
  7  4  1  0
  8  1  1  0
  9  6  2  3
 10  3  1  0
 10  9  1  0
 13 11  1  0
 14 12  1  0
 15 11  1  0
  8 16  1  1
 17 11  1  0
 18  4  1  0
 19 14  1  0
 20 14  1  0
  1 21  1  6
 22  4  2  0
 22 10  1  0
 23  8  1  0
 23 15  1  0
 24  2  1  0
 24 22  1  0
 25 11  1  0
 25 14  1  0
M  RAD  2  12   2  14   2
M  END
>  <ID>  (1) 
conformer_0

$$$$
