
     RDKit          3D

 30 30  0  0  0  0  0  0  0  0999 V2000
   11.4212   14.5603   12.4436 C   0  0  1  0  0  0  0  0  0  0  0  0
    9.2512   13.1022   14.2555 C   0  0  0  0  0  0  0  0  0  0  0  0
   11.6336   15.7492   12.0979 C   0  0  0  0  0  0  0  0  0  0  0  0
   10.0076   14.4365   14.7492 C   0  0  0  0  0  0  0  0  0  0  0  0
    7.2831   11.0606   14.2055 N   0  0  0  0  0  0  0  0  0  0  0  0
    9.2156   14.2677   15.6073 N   0  0  0  0  0  0  0  0  0  0  0  0
   12.7829   14.7132   13.5467 O   0  0  0  0  0  0  0  0  0  0  0  0
   12.6658   16.5192   12.7703 C   0  0  0  0  0  0  0  0  0  0  0  0
   10.4091   14.1390   13.8190 N   0  0  0  0  0  0  0  0  0  0  0  0
   11.6274   18.4426   16.8305 O   0  0  0  0  0  0  0  0  0  0  0  0
   13.2287   20.5574   17.6221 O   0  0  0  0  0  0  0  0  0  0  0  0
   14.3913   20.1326   17.0093 P   0  0  0  0  0  0  0  0  0  0  0  0
    6.6604   12.1364   16.0124 N   0  0  0  0  0  0  0  0  0  0  0  0
   15.4605   19.8612   17.9101 O   0  0  0  0  0  0  0  0  0  0  0  0
   12.6066   17.1031   15.2926 O   0  0  0  0  0  0  0  0  0  0  0  0
   12.9722   22.7495   15.2181 O   0  0  0  0  0  0  0  0  0  0  0  0
   11.5421   17.2767   11.3147 O   0  0  0  0  0  0  0  0  0  0  0  0
    7.9100   12.4715   15.2215 C   0  0  2  0  0  0  0  0  0  0  0  0
   14.1511   21.9633   14.7776 P   0  0  0  0  0  4  0  0  0  0  0  0
   14.6943   20.6950   15.5714 O   0  0  0  0  0  0  0  0  0  0  0  0
   11.6100   14.8238   10.5830 O   0  0  0  0  0  0  0  0  0  0  0  0
   14.2052   21.7716   13.2821 O   0  0  0  0  0  1  0  0  0  0  0  0
    8.4437   11.5169   13.4032 C   0  0  0  0  0  0  0  0  0  0  0  0
    9.0914   11.9761   13.1638 N   0  0  0  0  0  0  0  0  0  0  0  0
   13.5534   16.6933   14.1804 C   0  0  0  0  0  0  0  0  0  0  0  0
    8.7618   11.0338   12.1840 N   0  0  0  0  0  0  0  0  0  0  0  0
   12.5791   18.2717   16.0181 P   0  0  0  0  0  5  0  0  0  0  0  0
   12.7007   19.1777   15.0328 O   0  0  0  0  0  0  0  0  0  0  0  0
   15.0808   22.6847   15.5327 O   0  0  0  0  0  0  0  0  0  0  0  0
   14.1967   18.4105   16.8378 O   0  0  0  0  0  0  0  0  0  0  0  0
  3  1  1  0
  4  2  1  0
  6  4  2  3
  1  7  1  1
  8  3  1  0
  9  1  1  0
  9  4  1  0
 12 11  1  0
 14 12  1  0
 17  3  1  0
 18  2  1  0
 18  5  1  0
 18 13  1  6
 19 16  1  0
 20 12  1  0
 20 19  1  0
 21  3  1  0
 22 19  1  0
 23  5  2  0
 24  2  2  0
 24 23  1  0
 25  8  1  0
 25 15  1  0
 26 23  1  0
 27 10  1  0
 27 14  1  0
 27 15  1  0
 28 27  1  0
 29 19  1  0
 30 27  1  0
M  RAD  2  19   2  22   2
M  END
>  <ID>  (1) 
conformer_0

$$$$
