
     RDKit          3D

 29 28  0  0  0  0  0  0  0  0999 V2000
   11.9949   16.8450   12.5245 C   0  0  2  0  0  0  0  0  0  0  0  0
    9.1761   13.1325   14.2076 C   0  0  0  0  0  0  0  0  0  0  0  0
   11.4344   15.5872   12.0994 C   0  0  2  0  0  0  0  0  0  0  0  0
    9.8503   14.4619   14.7280 C   0  0  0  0  0  0  0  0  0  0  0  0
    8.9925   14.1667   15.5929 N   0  0  0  0  0  0  0  0  0  0  0  0
    7.3858   11.1401   14.0786 N   0  0  0  0  0  0  0  0  0  0  0  0
   12.5764   14.7590   13.4388 O   0  0  0  0  0  0  0  0  0  0  0  0
   10.2939   14.0319   13.7285 N   0  0  0  0  0  0  0  0  0  0  0  0
   12.7577   18.2316   16.0088 P   0  0  0  0  0  5  0  0  0  0  0  0
   11.6477   18.3387   16.7760 O   0  0  0  0  0  0  0  0  0  0  0  0
   11.6998   17.5174   11.2891 O   0  0  0  0  0  0  0  0  0  0  0  0
    7.7587   12.4366   15.0907 C   0  0  0  0  0  0  0  0  0  0  0  0
   11.3667   14.2870   12.5753 C   0  0  1  0  0  0  0  0  0  0  0  0
   13.6864   21.8757   13.7123 O   0  0  0  0  0  1  0  0  0  0  0  0
   15.2470   19.5905   18.0079 O   0  0  0  0  0  0  0  0  0  0  0  0
   12.4371   16.8376   14.9080 O   0  0  0  0  0  0  0  0  0  0  0  0
   14.3404   22.0678   14.9736 P   0  0  0  0  0  4  0  0  0  0  0  0
   16.0005   21.8316   15.8783 O   0  0  0  0  0  0  0  0  0  0  0  0
   11.3871   15.1025   10.7147 O   0  0  0  0  0  0  0  0  0  0  0  0
   13.2788   20.4187   17.5355 O   0  0  0  0  0  0  0  0  0  0  0  0
    6.4801   12.0047   15.8525 N   0  0  0  0  0  0  0  0  0  0  0  0
   13.7869   22.8753   15.7699 O   0  0  0  0  0  0  0  0  0  0  0  0
   14.7068   20.1696   17.1004 P   0  0  0  0  0  0  0  0  0  0  0  0
    8.5074   11.5284   13.2903 C   0  0  0  0  0  0  0  0  0  0  0  0
   14.5375   20.2028   15.7846 O   0  0  0  0  0  0  0  0  0  0  0  0
    9.0702   11.8733   12.8490 N   0  0  0  0  0  0  0  0  0  0  0  0
   13.9795   17.8699   16.5872 O   0  0  0  0  0  0  0  0  0  0  0  0
   13.1287   16.6909   13.5892 C   0  0  0  0  0  0  0  0  0  0  0  0
   12.4892   18.9692   14.9156 O   0  0  0  0  0  0  0  0  0  0  0  0
  3  1  1  0
  5  4  2  3
  8  2  1  0
  8  4  1  0
 10  9  1  0
  1 11  1  6
 12  2  1  0
 12  6  1  0
 13  3  1  0
 13  7  1  1
 13  8  1  0
 15  9  1  0
 16  9  1  0
 17 14  1  0
 18 17  1  0
  3 19  1  6
 21 12  2  3
 22 17  1  0
 23 15  1  0
 23 20  1  0
 24  6  1  0
 25 17  1  0
 25 23  1  0
 26 24  3  0
 27  9  1  0
 28  1  1  0
 28 16  1  0
 29  9  1  0
M  RAD  2  14   2  17   2
M  END
>  <ID>  (1) 
conformer_0

$$$$
