
     RDKit          3D

 29 30  0  0  0  0  0  0  0  0999 V2000
   11.6259   14.4122   12.6412 C   0  0  0  0  0  0  0  0  0  0  0  0
    8.5209   11.3640   13.0976 C   0  0  0  0  0  0  0  0  0  0  0  0
   11.5115   15.3787   12.1661 C   0  0  0  0  0  0  0  0  0  0  0  0
    9.9734   14.5749   14.9887 C   0  0  0  0  0  0  0  0  0  0  0  0
    7.1953   10.8701   14.0466 N   0  0  0  0  0  0  0  0  0  0  0  0
    9.0347   14.0726   15.5946 N   0  0  0  0  0  0  0  0  0  0  0  0
   12.6432   14.7559   13.6511 O   0  0  0  0  0  0  0  0  0  0  0  0
   14.9254   18.9433   17.4937 O   0  0  0  0  0  0  0  0  0  0  0  0
   10.3856   14.1669   13.9450 N   0  0  0  0  0  0  0  0  0  0  0  0
   13.1834   20.5052   17.4012 O   0  0  0  0  0  0  0  0  0  0  0  0
   14.2161   19.8999   16.7168 P   0  0  0  0  0  0  0  0  0  0  0  0
    7.9095   12.3494   14.9237 C   0  0  0  0  0  3  0  0  0  0  0  0
    6.6576   11.9493   15.8379 N   0  0  0  0  0  0  0  0  0  0  0  0
   16.0849   22.3083   15.0385 O   0  0  0  0  0  0  0  0  0  0  0  0
   14.4929   22.2240   14.6431 P   0  0  0  0  0  4  0  0  0  0  0  0
   11.6540   17.2142   11.4488 O   0  0  0  0  0  0  0  0  0  0  0  0
   11.8427   18.3207   16.9426 O   0  0  0  0  0  0  0  0  0  0  0  0
   14.1310   22.2777   13.6262 O   0  0  0  0  0  1  0  0  0  0  0  0
   11.9718   19.1963   14.9594 O   0  0  0  0  0  1  0  0  0  0  0  0
   12.3567   16.4985   12.8176 C   0  0  0  0  0  0  0  0  0  0  0  0
   11.9904   14.6997   10.7597 O   0  0  0  0  0  0  0  0  0  0  0  0
   13.9205   23.0593   15.8656 O   0  0  0  0  0  0  0  0  0  0  0  0
   14.1985   20.1936   15.4003 O   0  0  0  0  0  0  0  0  0  0  0  0
    9.2750   13.0324   14.1356 C   0  0  0  0  0  0  0  0  0  0  0  0
   12.3132   18.3003   15.9671 P   0  0  0  0  0  4  0  0  0  0  0  0
    9.4748   11.8214   12.6127 N   0  0  0  0  0  0  0  0  0  0  0  0
   13.0715   16.8451   14.0338 C   0  0  0  0  0  0  0  0  0  0  0  0
    8.8507   11.7894   13.0880 N   0  0  0  0  0  0  0  0  0  0  0  0
   12.5276   17.3817   15.2191 O   0  0  0  0  0  0  0  0  0  0  0  0
  3  1  1  0
  5  2  2  0
  6  4  2  0
  7  1  1  0
  9  1  1  0
  9  4  1  0
 11  8  1  0
 11 10  1  0
 12  5  1  0
 13 12  1  0
 15 14  1  0
 18 15  1  0
 20  3  1  0
 20 16  1  0
 21  3  1  0
 22 15  1  0
 23 11  1  0
 23 15  1  0
 24  6  1  0
 24  9  1  0
 24 12  1  0
 25  8  1  0
 25 17  1  0
 25 19  1  0
 27 20  1  0
 28  2  1  0
 28 24  1  0
 28 26  1  0
 29 25  1  0
 29 27  1  0
M  RAD  5  12   2  15   2  18   2  19   2  25   2
M  END
>  <ID>  (1) 
conformer_0

$$$$
