
     RDKit          3D

 29 31  0  0  0  0  0  0  0  0999 V2000
    8.7859   13.2072   14.9367 C   0  0  0  0  0  0  0  0  0  0  0  0
   11.4339   14.4028   12.3549 C   0  0  0  0  0  0  0  0  0  0  0  0
   11.4020   15.6573   12.0981 C   0  0  0  0  0  0  0  0  0  0  0  0
   10.0739   15.0208   14.9477 C   0  0  0  0  0  0  0  0  0  0  0  0
    9.1782   14.4552   15.6178 N   0  0  0  0  0  0  0  0  0  0  0  0
    7.5831   11.2423   14.1285 N   0  0  0  0  0  0  0  0  0  0  0  0
   12.7498   14.8172   13.5436 O   0  0  0  0  0  0  0  0  0  0  0  0
   12.4655   16.4190   12.7642 C   0  0  0  0  0  0  0  0  0  0  0  0
   10.3796   14.1159   13.7802 N   0  0  0  0  0  0  0  0  0  0  0  0
    7.6475   12.3431   15.2962 C   0  0  0  0  0  0  0  0  0  0  0  0
   11.9109   18.6406   16.6853 O   0  0  0  0  0  0  0  0  0  0  0  0
   15.6444   20.0698   17.7649 O   0  0  0  0  0  1  0  0  0  0  0  0
   14.5270   22.1782   15.2637 P   0  0  0  0  0  5  0  0  0  0  0  0
   13.7271   22.4309   14.0419 O   0  0  0  0  0  0  0  0  0  0  0  0
   11.7598   17.2103   11.3086 O   0  0  0  0  0  0  0  0  0  0  0  0
   16.0753   22.3102   15.7293 O   0  0  0  0  0  0  0  0  0  0  0  0
   12.6730   18.3491   14.8620 O   0  0  0  0  0  0  0  0  0  0  0  0
   13.3315   20.6249   17.7221 O   0  0  0  0  0  0  0  0  0  0  0  0
   11.3536   14.7110   10.6032 O   0  0  0  0  0  0  0  0  0  0  0  0
   12.7552   18.6575   15.8713 P   0  0  0  0  0  4  0  0  0  0  0  0
   13.8471   22.7997   16.4338 O   0  0  0  0  0  0  0  0  0  0  0  0
    9.2647   11.9514   12.9574 N   0  0  0  0  0  0  0  0  0  0  0  0
    8.5225   11.3996   13.2361 C   0  0  0  0  0  0  0  0  0  0  0  0
    6.8782   12.0827   16.1314 N   0  0  0  0  0  0  0  0  0  0  0  0
   14.3053   20.6997   15.4236 O   0  0  0  0  0  0  0  0  0  0  0  0
   13.4404   17.0553   13.9930 C   0  0  0  0  0  0  0  0  0  0  0  0
   14.6522   20.4174   17.0876 P   0  0  0  0  0  4  0  0  0  0  0  0
   14.3228   18.7824   16.6053 O   0  0  0  0  0  1  0  0  0  0  0  0
    9.6315   13.2587   13.8093 C   0  0  0  0  0  0  0  0  0  0  0  0
  3  2  1  0
  5  1  1  0
  5  4  2  0
  7  2  1  0
  8  3  1  0
  8  7  1  0
  9  2  1  0
  9  4  1  0
 10  1  2  0
 10  6  1  0
 14 13  1  0
 15  3  1  0
 16 13  1  0
 19  3  1  0
 20 11  1  0
 20 13  1  0
 20 17  1  0
 21 13  1  0
 23  6  2  0
 23 22  1  0
 24 10  1  0
 25 13  1  0
 26  8  1  0
 26 17  1  0
 27 12  1  0
 27 18  1  0
 27 25  1  0
 28 20  1  0
 29  1  1  0
 29  9  1  0
 29 22  2  0
M  RAD  4  12   2  20   2  27   2  28   2
M  END
>  <ID>  (1) 
conformer_0

$$$$
