
     RDKit          3D

 32 34  0  0  0  0  0  0  0  0999 V2000
   11.3080   14.1086   12.4874 C   0  0  0  0  0  0  0  0  0  0  0  0
    9.4681   12.9091   13.6061 C   0  0  0  0  0  0  0  0  0  0  0  0
   10.9633   15.1117   11.8343 C   0  0  0  0  0  0  0  0  0  0  0  0
   10.0667   14.6462   14.8783 C   0  0  0  0  0  0  0  0  0  0  0  0
    7.4643   11.0376   14.1330 N   0  0  0  0  0  0  0  0  0  0  0  0
   11.8886   16.3850   12.4028 C   0  0  0  0  0  0  0  0  0  0  0  0
    9.1165   14.0486   15.5001 N   0  0  0  0  0  0  0  0  0  0  0  0
   12.6143   14.5370   13.4754 O   0  0  0  0  0  0  0  0  0  0  0  0
   11.3357   17.7992   16.7649 O   0  0  0  0  0  0  0  0  0  0  0  0
   14.2796   20.0752   17.1712 P   0  0  0  0  0  5  0  0  0  0  0  0
   13.6793   21.2261   17.9588 O   0  0  0  0  0  0  0  0  0  0  0  0
   10.2477   13.8675   13.6655 N   0  0  0  0  0  0  0  0  0  0  0  0
    6.6711   12.0237   16.0823 N   0  0  0  0  0  0  0  0  0  0  0  0
   14.0857   18.5229   16.7651 O   0  0  0  0  0  0  0  0  0  0  0  0
   15.4321   19.8356   17.8948 O   0  0  0  0  0  0  0  0  0  0  0  0
    8.7425   12.9737   14.8309 C   0  0  0  0  0  0  0  0  0  0  0  0
   11.3244   17.2314   11.4629 O   0  0  0  0  0  0  0  0  0  0  0  0
   14.4592   21.9649   14.9175 P   0  0  0  0  0  5  0  0  0  0  0  0
   13.6277   22.0304   13.7300 O   0  0  0  0  0  0  0  0  0  0  0  0
   15.8828   22.2642   14.7732 O   0  0  0  0  0  0  0  0  0  0  0  0
   11.5169   14.8626   10.5880 O   0  0  0  0  0  0  0  0  0  0  0  0
   13.8245   22.9352   16.1075 O   0  0  0  0  0  0  0  0  0  0  0  0
   12.3544   18.2296   16.0338 P   0  0  0  0  0  4  0  0  0  0  0  0
    9.0399   11.8998   12.7706 N   0  0  0  0  0  0  0  0  0  0  0  0
   12.8812   15.8986   13.1775 C   0  0  0  0  0  0  0  0  0  0  0  0
    8.2869   11.0745   13.0196 C   0  0  0  0  0  0  0  0  0  0  0  0
   12.4498   17.1345   15.1313 O   0  0  0  0  0  0  0  0  0  0  0  0
   14.5828   20.6721   15.6657 O   0  0  0  0  0  0  0  0  0  0  0  0
   12.3128   19.2293   15.1062 O   0  0  0  0  0  1  0  0  0  0  0  0
    7.5556   12.1083   15.1177 C   0  0  0  0  0  0  0  0  0  0  0  0
   12.6469   19.6631   17.4170 O   0  0  0  0  0  0  0  0  0  0  0  0
   13.5153   16.7170   14.3838 C   0  0  0  0  0  0  0  0  0  0  0  0
  3  1  1  0
  6  3  1  0
  7  4  2  0
  8  1  1  0
 11 10  1  0
 12  1  1  0
 12  2  1  0
 12  4  1  0
 14 10  1  0
 15 10  1  0
 16  2  2  0
 16  7  1  0
 17  6  1  0
 18 15  1  0
 19 18  1  0
 20 18  1  0
 21  3  1  0
 22 18  1  0
 23  9  1  0
 23 14  1  0
 24  2  1  0
 25  6  1  0
 25  8  1  0
 26  5  1  0
 26 24  2  0
 27 23  1  0
 28 18  1  0
 29 23  1  0
 30  5  2  0
 30 13  1  0
 30 16  1  0
 31 10  1  0
 32 25  1  0
 32 27  1  0
M  RAD  2  23   2  29   2
M  END
>  <ID>  (1) 
conformer_0

$$$$
