
     RDKit          3D

 31 33  0  0  0  0  0  0  0  0999 V2000
    9.4749   12.9544   13.6301 C   0  0  0  0  0  0  0  0  0  0  0  0
   11.2841   14.0338   12.4519 C   0  0  0  0  0  0  0  0  0  0  0  0
   11.3053   15.4773   11.8320 C   0  0  0  0  0  0  0  0  0  0  0  0
   10.1630   14.7788   14.7752 C   0  0  0  0  0  0  0  0  0  0  0  0
    9.1852   14.3509   15.6413 N   0  0  0  0  0  0  0  0  0  0  0  0
    7.6264   11.4377   14.1896 N   0  0  0  0  0  0  0  0  0  0  0  0
   12.5810   14.6658   13.5630 O   0  0  0  0  0  0  0  0  0  0  0  0
   13.2466   20.4055   17.4962 O   0  0  0  0  0  0  0  0  0  0  0  0
   14.4394   22.3328   14.7834 P   0  0  0  0  0  4  0  0  0  0  0  0
   10.3647   14.0275   13.6884 N   0  0  0  0  0  0  0  0  0  0  0  0
   12.1632   17.0939   12.6670 C   0  0  0  0  0  0  0  0  0  0  0  0
    6.8738   12.4794   16.2777 N   0  0  0  0  0  0  0  0  0  0  0  0
   12.5675   16.8895   15.0856 O   0  0  0  0  0  0  0  0  0  0  0  0
   14.4031   20.0507   16.7457 P   0  0  0  0  0  0  0  0  0  0  0  0
   11.7250   17.3421   11.2649 O   0  0  0  0  0  0  0  0  0  0  0  0
    7.5426   12.4133   15.3087 C   0  0  0  0  0  0  0  0  0  0  0  0
   11.8400   18.2324   16.9075 O   0  0  0  0  0  0  0  0  0  0  0  0
   14.1340   18.0613   16.5688 O   0  0  0  0  0  0  0  0  0  0  0  0
   13.6362   23.1356   15.6126 O   0  0  0  0  0  0  0  0  0  0  0  0
   15.9420   22.4970   14.8786 O   0  0  0  0  0  0  0  0  0  0  0  0
   14.7171   20.7079   15.6765 O   0  0  0  0  0  0  0  0  0  0  0  0
   11.4848   14.9703   10.6743 O   0  0  0  0  0  0  0  0  0  0  0  0
   13.6300   21.9096   13.5911 O   0  0  0  0  0  1  0  0  0  0  0  0
   12.2317   19.1345   15.0617 O   0  0  0  0  0  0  0  0  0  0  0  0
    8.1865   11.1976   13.4323 C   0  0  0  0  0  0  0  0  0  0  0  0
    9.1576   11.5070   12.6241 N   0  0  0  0  0  0  0  0  0  0  0  0
   12.5063   15.7404   12.7299 C   0  0  0  0  0  0  0  0  0  0  0  0
   12.7218   18.1267   16.0818 P   0  0  0  0  0  5  0  0  0  0  0  0
   15.4573   19.6793   17.5490 O   0  0  0  0  0  0  0  0  0  0  0  0
    8.8445   13.3139   14.9298 C   0  0  0  0  0  0  0  0  0  0  0  0
   13.4599   16.8668   14.4287 C   0  0  0  0  0  0  0  0  0  0  0  0
  3  2  1  0
  5  4  2  0
  7  2  1  0
 10  1  1  0
 10  2  1  0
 10  4  1  0
 14  8  1  0
 15 11  1  0
 16  6  1  0
 16 12  1  0
 19  9  1  0
 20  9  1  0
 21  9  1  0
 21 14  1  0
 22  3  1  0
 23  9  1  0
 25  6  2  0
 26  1  1  0
 26 25  1  0
 27  3  1  0
 27  7  1  0
 27 11  1  0
 28 13  1  0
 28 17  1  0
 28 18  1  0
 28 24  1  0
 29 14  1  0
 29 28  1  0
 30  1  1  0
 30  5  1  0
 30 16  2  0
 31 11  1  0
 31 13  1  0
M  RAD  2   9   2  23   2
M  END
>  <ID>  (1) 
conformer_0

$$$$
