
     RDKit          3D

 28 29  0  0  0  0  0  0  0  0999 V2000
   11.2086   14.1633   12.3200 C   0  0  0  0  0  0  0  0  0  0  0  0
    9.1571   13.1091   14.3983 C   0  0  2  0  0  0  0  0  0  0  0  0
   11.4688   15.3307   11.9528 C   0  0  1  0  0  0  0  0  0  0  0  0
    9.9485   14.4416   14.9194 C   0  0  0  0  0  0  0  0  0  0  0  0
    9.2684   14.3878   15.7546 N   0  0  0  0  0  0  0  0  0  0  0  0
   12.4776   16.1164   12.6174 C   0  0  0  0  0  0  0  0  0  0  0  0
    7.1957   11.2794   14.5498 N   0  0  0  0  0  0  0  0  0  0  0  0
   12.5967   14.6504   13.5209 O   0  0  0  0  0  0  0  0  0  0  0  0
   15.0100   19.0833   17.5780 O   0  0  0  0  0  0  0  0  0  0  0  0
   14.3801   20.0317   16.6903 P   0  0  0  0  0  0  0  0  0  0  0  0
    7.7597   12.7167   15.5313 C   0  0  0  0  0  0  0  0  0  0  0  0
   10.3300   13.9457   13.8270 N   0  0  0  0  0  0  0  0  0  0  0  0
   14.3307   22.4623   15.1102 P   0  0  0  0  0  4  0  0  0  0  0  0
   11.4316   14.3130   10.5075 O   0  0  0  0  0  0  0  0  0  0  0  0
   12.1086   17.0363   11.2655 O   0  0  0  0  0  0  0  0  0  0  0  0
   13.0677   20.3695   17.3922 O   0  0  0  0  0  0  0  0  0  0  0  0
   13.0414   17.3376   15.5320 O   0  0  0  0  0  0  0  0  0  0  0  0
   13.4450   23.0834   15.8561 O   0  0  0  0  0  0  0  0  0  0  0  0
   14.1369   22.3719   13.8714 O   0  0  0  0  0  1  0  0  0  0  0  0
   15.9352   22.4224   15.4239 O   0  0  0  0  0  0  0  0  0  0  0  0
   11.9144   18.2188   16.9423 O   0  0  0  0  0  0  0  0  0  0  0  0
   13.4104   16.6308   14.0301 C   0  0  2  0  0  0  0  0  0  0  0  0
   14.3665   20.2242   15.7781 O   0  0  0  0  0  0  0  0  0  0  0  0
    8.3311   11.5635   13.6680 C   0  0  0  0  0  0  0  0  0  0  0  0
    6.8208   12.4331   16.4355 N   0  0  0  0  0  0  0  0  0  0  0  0
    8.7001   11.8230   13.3063 N   0  0  0  0  0  0  0  0  0  0  0  0
   12.5945   18.2108   16.0450 P   0  0  0  0  0  0  0  0  0  0  0  0
   11.9715   18.7903   15.0455 O   0  0  0  0  0  0  0  0  0  0  0  0
  3  1  1  0
  4  2  1  0
  5  4  2  3
  6  3  1  0
  8  6  1  0
 10  9  1  0
 11  2  1  0
 11  7  2  0
 12  1  1  0
 12  2  1  0
 12  4  1  0
  3 14  1  6
 15  6  1  0
 16 10  1  0
 18 13  1  0
 19 13  1  0
 20 13  1  0
 22  6  1  0
 22 17  1  0
 23 10  1  0
 23 13  1  0
 24  7  1  0
 25 11  1  0
  2 26  1  1
 26 24  1  0
 27  9  1  0
 27 17  1  0
 27 21  1  0
 22 28  1  6
M  RAD  2  13   2  19   2
M  END
>  <ID>  (1) 
conformer_0

$$$$
