
     RDKit          3D

 28 29  0  0  0  0  0  0  0  0999 V2000
    7.8803   12.7528   15.3459 C   0  0  0  0  0  0  0  0  0  0  0  0
   11.3397   14.2717   12.3349 C   0  0  1  0  0  0  0  0  0  0  0  0
   11.6888   15.5275   12.1349 C   0  0  1  0  0  0  0  0  0  0  0  0
    9.2770   13.3632   14.3813 C   0  0  0  0  0  0  0  0  0  0  0  0
    9.1296   14.5507   15.6856 N   0  0  0  0  0  0  0  0  0  0  0  0
    7.2852   11.2894   14.3595 N   0  0  0  0  0  0  0  0  0  0  0  0
   12.5441   14.8143   13.5270 O   0  0  0  0  0  0  0  0  0  0  0  0
   10.4466   14.1599   13.9376 N   0  0  0  0  0  0  0  0  0  0  0  0
   14.2789   22.1732   15.2945 P   0  0  2  0  0  4  0  0  0  0  0  0
    6.8247   12.3988   16.2076 N   0  0  0  0  0  0  0  0  0  0  0  0
   12.2559   18.5898   16.7738 O   0  0  0  0  0  0  0  0  0  0  0  0
   12.4857   16.5050   12.7412 C   0  0  0  0  0  0  0  0  0  0  0  0
   11.7789   17.3356   11.3518 O   0  0  0  0  0  0  0  0  0  0  0  0
   15.4549   21.4645   16.1978 O   0  0  0  0  0  0  0  0  0  0  0  0
   10.0274   14.7248   14.9310 C   0  0  0  0  0  0  0  0  0  0  0  0
   12.8262   17.4527   14.9049 O   0  0  0  0  0  0  0  0  0  0  0  0
   13.5865   22.8934   15.8907 O   0  0  0  0  0  0  0  0  0  0  0  0
   13.4741   20.7635   17.6637 O   0  0  0  0  0  0  0  0  0  0  0  0
   13.2027   18.3456   16.0488 P   0  0  0  0  0  0  0  0  0  0  0  0
   14.4039   17.8298   16.8265 O   0  0  0  0  0  0  0  0  0  0  0  0
   11.8456   14.9671   10.6907 O   0  0  0  0  0  0  0  0  0  0  0  0
    8.3713   11.7234   13.7372 C   0  0  0  0  0  0  0  0  0  0  0  0
   14.0971   21.7204   14.0223 O   0  0  0  0  0  1  0  0  0  0  0  0
   13.3787   17.0376   13.7440 C   0  0  0  0  0  0  0  0  0  0  0  0
   14.6073   20.3770   17.2826 P   0  0  0  0  0  5  0  0  0  0  0  0
    9.0072   12.0490   13.2362 N   0  0  0  0  0  0  0  0  0  0  0  0
   15.2856   19.7248   17.8052 O   0  0  0  0  0  0  0  0  0  0  0  0
   13.9312   19.5914   15.3030 O   0  0  0  0  0  0  0  0  0  0  0  0
  3  2  1  0
  4  1  1  0
  6  1  2  0
  2  7  1  1
  8  2  1  0
  8  4  1  0
 10  1  1  0
 12  3  1  0
 13 12  1  0
 14  9  1  0
 15  4  1  0
 15  5  2  3
 15  8  1  0
  9 17  1  1
 19 11  1  0
 19 16  1  0
 20 19  1  0
  3 21  1  6
 22  6  1  0
 23  9  1  0
 24 12  1  0
 24 16  1  0
 25 14  1  0
 25 18  1  0
 25 20  1  0
 26  4  1  0
 26 22  1  0
 27 25  1  0
 28 25  1  0
M  RAD  2   9   2  23   2
M  END
>  <ID>  (1) 
conformer_0

$$$$
