
     RDKit          3D

 29 30  0  0  0  0  0  0  0  0999 V2000
   11.4638   14.1983   12.6204 C   0  0  1  0  0  0  0  0  0  0  0  0
    9.2172   12.8977   14.0068 C   0  0  1  0  0  0  0  0  0  0  0  0
   12.3046   16.2376   12.6577 C   0  0  2  0  0  0  0  0  0  0  0  0
    9.7041   14.3303   14.6770 C   0  0  0  0  0  0  0  0  0  0  0  0
    7.3817   10.9306   13.9702 N   0  0  0  0  0  0  0  0  0  0  0  0
    8.9391   13.9771   15.3906 N   0  0  0  0  0  0  0  0  0  0  0  0
   12.5083   14.4443   13.5212 O   0  0  0  0  0  0  0  0  0  0  0  0
   14.2657   19.8806   16.7752 P   0  0  0  0  0  0  0  0  0  0  0  0
   14.3136   22.3034   15.1261 P   0  0  0  0  0  4  0  0  0  0  0  0
    6.5183   11.7774   15.6921 N   0  0  0  0  0  0  0  0  0  0  0  0
   10.2741   13.8002   13.5857 N   0  0  0  0  0  0  0  0  0  0  0  0
    7.8496   12.3052   14.9414 C   0  0  0  0  0  3  0  0  0  0  0  0
   11.6968   18.1399   16.7993 O   0  0  0  0  0  0  0  0  0  0  0  0
   14.1107   18.0754   16.5616 O   0  0  0  0  0  0  0  0  0  0  0  0
   13.1116   20.4453   17.4834 O   0  0  0  0  0  0  0  0  0  0  0  0
   11.8287   14.7236   10.6257 O   0  0  0  0  0  0  0  0  0  0  0  0
   12.6744   19.2818   14.9415 O   0  0  0  0  0  0  0  0  0  0  0  0
   13.4149   23.1437   15.9934 O   0  0  0  0  0  0  0  0  0  0  0  0
   12.9442   16.4587   13.9457 C   0  0  0  0  0  0  0  0  0  0  0  0
   13.7859   21.9675   13.8943 O   0  0  0  0  0  1  0  0  0  0  0  0
   15.7808   22.6239   15.2387 O   0  0  0  0  0  0  0  0  0  0  0  0
   11.5188   16.9368   11.2910 O   0  0  0  0  0  0  0  0  0  0  0  0
    8.5714   11.3399   13.0377 C   0  0  0  0  0  0  0  0  0  0  0  0
    8.9924   11.7583   12.8316 N   0  0  0  0  0  0  0  0  0  0  0  0
   12.5660   16.9786   15.0283 O   0  0  0  0  0  0  0  0  0  0  0  0
   14.7510   20.5327   15.7092 O   0  0  0  0  0  0  0  0  0  0  0  0
   12.6370   18.0897   15.9886 P   0  0  0  0  0  5  0  0  0  0  0  0
   11.2304   15.3863   12.0254 C   0  0  1  0  0  0  0  0  0  0  0  0
   15.2020   19.4668   17.8934 O   0  0  0  0  0  0  0  0  0  0  0  0
  4  2  1  0
  6  4  2  3
  1  7  1  1
 11  1  1  0
 11  2  1  0
 11  4  1  0
 12  2  1  0
 12  5  1  0
 12 10  1  0
 15  8  1  0
 18  9  1  0
 19  3  1  0
 20  9  1  0
 21  9  1  0
  3 22  1  1
 23  5  2  0
  2 24  1  1
 24 23  1  0
 25 19  1  0
 26  8  1  0
 26  9  1  0
 27 13  1  0
 27 14  1  0
 27 17  1  0
 27 25  1  0
 28  1  1  0
 28  3  1  0
 28 16  1  6
 29  8  1  0
 29 27  1  0
M  RAD  3   9   2  12   2  20   2
M  END
>  <ID>  (1) 
conformer_0

$$$$
