
     RDKit          3D

 28 30  0  0  0  0  0  0  0  0999 V2000
    8.4658   11.3807   13.2976 C   0  0  0  0  0  0  0  0  0  0  0  0
   11.5826   15.5305   12.1881 C   0  0  0  0  0  0  0  0  0  0  0  0
   11.4881   14.1469   12.5569 C   0  0  1  0  0  0  0  0  0  0  0  0
    9.9205   14.5421   14.9111 C   0  0  0  0  0  0  0  0  0  0  0  0
   12.5133   16.0301   12.9597 C   0  0  2  0  0  0  0  0  0  0  0  0
    7.3885   11.0696   14.1675 N   0  0  0  0  0  0  0  0  0  0  0  0
   12.6705   14.3336   13.5408 O   0  0  0  0  0  0  0  0  0  0  0  0
    9.0942   14.2615   15.5649 N   0  0  0  0  0  0  0  0  0  0  0  0
   11.8156   18.2384   16.8847 O   0  0  0  0  0  0  0  0  0  0  0  0
   13.9531   19.0859   15.9555 O   0  0  0  0  0  1  0  0  0  0  0  0
   12.6077   18.1365   16.0118 P   0  0  1  0  0  4  0  0  0  0  0  0
   11.3325   17.3314   11.5553 O   0  0  0  0  0  0  0  0  0  0  0  0
   10.3734   13.9571   13.8588 N   0  0  0  0  0  0  0  0  0  0  0  0
   14.2323   22.7162   15.2726 P   0  0  1  0  0  4  0  0  0  0  0  0
    7.8600   12.4167   15.0032 C   0  0  0  0  0  0  0  0  0  0  0  0
   15.1565   19.6013   17.7112 O   0  0  0  0  0  0  0  0  0  0  0  0
   13.9061   23.4481   15.8159 O   0  0  0  0  0  0  0  0  0  0  0  0
   15.0725   21.3805   15.9560 O   0  0  0  0  0  0  0  0  0  0  0  0
   13.3730   21.3197   17.5547 O   0  0  0  0  0  0  0  0  0  0  0  0
   13.7472   22.1284   13.9576 O   0  0  0  0  0  1  0  0  0  0  0  0
    6.5232   12.0191   15.9264 N   0  0  0  0  0  0  0  0  0  0  0  0
   11.2595   15.2230   10.8683 O   0  0  0  0  0  0  0  0  0  0  0  0
    9.2856   13.0899   14.1140 C   0  0  0  0  0  0  0  0  0  0  0  0
   13.5243   16.4068   14.1285 C   0  0  2  0  0  0  0  0  0  0  0  0
   14.2669   20.3058   16.8898 P   0  0  0  0  0  0  0  0  0  0  0  0
   12.6392   16.8226   15.1291 O   0  0  0  0  0  0  0  0  0  0  0  0
   11.9055   18.8738   14.9081 O   0  0  0  0  0  0  0  0  0  0  0  0
    8.9323   11.7667   12.9799 N   0  0  0  0  0  0  0  0  0  0  0  0
  3  2  1  0
  5  2  1  0
  6  1  1  0
  7  3  1  0
  5  7  1  6
  8  4  2  3
 11  9  1  1
 11 10  1  0
 12  2  1  0
  3 13  1  1
 13  4  1  0
 15  6  2  0
 16 11  1  0
 14 17  1  1
 18 14  1  0
 20 14  1  0
 21 15  1  0
 22  2  1  0
 23  4  1  0
 23 13  1  0
 23 15  1  0
 24  5  1  0
 25 16  1  0
 25 18  1  0
 25 19  1  0
 24 26  1  1
 27 11  1  0
 27 24  1  0
 28  1  1  0
 28 23  1  0
M  RAD  4  10   2  11   2  14   2  20   2
M  END
>  <ID>  (1) 
conformer_0

$$$$
