
     RDKit          3D

 29 30  0  0  0  0  0  0  0  0999 V2000
   11.4080   15.4776   12.0298 C   0  0  1  0  0  0  0  0  0  0  0  0
    8.5664   11.6139   13.3600 C   0  0  0  0  0  0  0  0  0  0  0  0
   11.5231   14.3282   12.7618 C   0  0  1  0  0  0  0  0  0  0  0  0
    8.0235   12.5948   15.1540 C   0  0  0  0  0  0  0  0  0  0  0  0
    9.2461   14.4758   15.7275 N   0  0  0  0  0  0  0  0  0  0  0  0
    7.3827   11.0441   14.1111 N   0  0  0  0  0  0  0  0  0  0  0  0
   12.7013   14.8596   13.5177 O   0  0  0  0  0  0  0  0  0  0  0  0
   10.5509   14.2291   13.8471 N   0  0  0  0  0  0  0  0  0  0  0  0
   10.0285   14.7549   14.9848 C   0  0  0  0  0  0  0  0  0  0  0  0
   12.1611   16.8993   12.5214 C   0  0  2  0  0  0  0  0  0  0  0  0
   12.3873   18.0007   15.1255 O   0  0  0  0  0  0  0  0  0  0  0  0
   14.6387   20.3490   17.0095 P   0  0  0  0  0  5  0  0  0  0  0  0
   15.2760   19.4839   17.8014 O   0  0  0  0  0  0  0  0  0  0  0  0
   15.8567   22.2236   14.5936 O   0  0  0  0  0  0  0  0  0  0  0  0
   13.2082   20.5891   17.5170 O   0  0  0  0  0  0  0  0  0  0  0  0
   14.4014   22.2051   14.9010 P   0  0  0  0  0  4  0  0  0  0  0  0
    6.6897   12.0384   15.8982 N   0  0  0  0  0  0  0  0  0  0  0  0
   11.8306   18.5446   16.8837 O   0  0  0  0  0  0  0  0  0  0  0  0
   11.6675   17.4434   11.3820 O   0  0  0  0  0  0  0  0  0  0  0  0
   13.7609   22.1350   13.8225 O   0  0  0  0  0  1  0  0  0  0  0  0
   13.4546   22.9154   15.7257 O   0  0  0  0  0  0  0  0  0  0  0  0
    9.3708   13.2066   14.2759 C   0  0  1  0  0  0  0  0  0  0  0  0
   14.0984   19.7464   15.8079 O   0  0  0  0  0  1  0  0  0  0  0  0
    9.1279   12.0188   12.9864 N   0  0  0  0  0  0  0  0  0  0  0  0
   11.4233   15.3543   10.8662 O   0  0  0  0  0  0  0  0  0  0  0  0
   12.5677   18.5688   16.0869 P   0  0  2  0  0  4  0  0  0  0  0  0
   13.0834   16.2795   13.3662 C   0  0  1  0  0  0  0  0  0  0  0  0
   13.5183   17.5104   14.3409 C   0  0  0  0  0  0  0  0  0  0  0  0
   15.6530   22.1146   16.7957 O   0  0  0  0  0  0  0  0  0  0  0  0
  3  1  1  0
  6  2  1  0
  7  3  1  0
  3  8  1  1
  9  5  2  3
  9  8  1  0
 10  1  1  0
 13 12  1  0
 15 12  1  0
 16 12  1  0
 16 14  1  0
 17  4  1  0
 10 19  1  6
 20 16  1  0
 21 16  1  0
 22  4  1  6
 22  8  1  0
 22  9  1  0
 24  2  1  0
 24 22  1  0
  1 25  1  6
 26 11  1  0
 26 13  1  0
 26 18  1  1
 26 23  1  0
 27  7  1  0
 27 10  1  0
 28 11  1  0
 27 28  1  1
 29 12  1  0
M  RAD  4  16   2  20   2  23   2  26   2
M  END
>  <ID>  (1) 
conformer_0

$$$$
