
     RDKit          3D

 28 29  0  0  0  0  0  0  0  0999 V2000
    9.4214   13.2703   14.3129 C   0  0  1  0  0  0  0  0  0  0  0  0
   11.4949   14.2469   12.3692 C   0  0  0  0  0  0  0  0  0  0  0  0
   11.4396   15.6308   12.0143 C   0  0  0  0  0  0  0  0  0  0  0  0
   10.0313   14.6779   14.8942 C   0  0  0  0  0  0  0  0  0  0  0  0
    9.2980   14.6115   15.7297 N   0  0  0  0  0  0  0  0  0  0  0  0
   12.5955   16.0783   12.5019 C   0  0  2  0  0  0  0  0  0  0  0  0
   12.8359   14.8522   13.5616 O   0  0  0  0  0  0  0  0  0  0  0  0
    7.6109   11.3235   14.2619 N   0  0  0  0  0  0  0  0  0  0  0  0
   10.4137   13.9972   13.7764 N   0  0  0  0  0  0  0  0  0  0  0  0
   12.0382   18.2996   16.8574 O   0  0  0  0  0  0  0  0  0  0  0  0
   12.9700   18.2642   15.9353 P   0  0  2  0  0  4  0  0  0  0  0  0
   15.2770   19.8942   17.9105 O   0  0  0  0  0  0  0  0  0  0  0  0
    8.1091   12.7930   15.3736 C   0  0  0  0  0  0  0  0  0  0  0  0
   11.7864   14.7119   10.5607 O   0  0  0  0  0  0  0  0  0  0  0  0
   13.6412   21.7545   13.3737 O   0  0  0  0  0  1  0  0  0  0  0  0
    6.8038   12.1810   16.1359 N   0  0  0  0  0  0  0  0  0  0  0  0
   13.9509   22.0763   14.7409 P   0  0  0  0  0  4  0  0  0  0  0  0
   12.4398   18.0751   14.8777 O   0  0  0  0  0  0  0  0  0  0  0  0
   13.4635   22.8484   15.5743 O   0  0  0  0  0  0  0  0  0  0  0  0
   11.5780   17.1082   11.2213 O   0  0  0  0  0  0  0  0  0  0  0  0
   13.2637   20.5302   17.5589 O   0  0  0  0  0  0  0  0  0  0  0  0
    8.4654   11.6461   13.6707 C   0  0  0  0  0  0  0  0  0  0  0  0
   13.6886   16.7455   14.0516 C   0  0  0  0  0  0  0  0  0  0  0  0
   14.1200   20.3844   15.5657 O   0  0  0  0  0  0  0  0  0  0  0  0
    9.2886   11.9319   12.9857 N   0  0  0  0  0  0  0  0  0  0  0  0
   14.5396   20.2216   16.9519 P   0  0  0  0  0  0  0  0  0  0  0  0
   15.6042   21.8958   15.8035 O   0  0  0  0  0  0  0  0  0  0  0  0
   14.3287   18.2847   16.2171 O   0  0  0  0  0  1  0  0  0  0  0  0
  3  2  1  0
  4  1  1  0
  5  4  2  3
  6  3  1  0
  6  7  1  1
  9  1  1  0
  9  2  1  0
  9  4  1  0
 11 10  1  1
 12 11  1  0
 13  1  1  0
 13  8  2  0
 14  3  1  0
 16 13  1  0
 17 15  1  0
 18 11  1  0
 19 17  1  0
 20  3  1  0
 22  8  1  0
 23  6  1  0
 23 18  1  0
 24 17  1  0
  1 25  1  1
 25 22  1  0
 26 12  1  0
 26 21  1  0
 26 24  1  0
 27 17  1  0
 28 11  1  0
M  RAD  4  11   2  15   2  17   2  28   2
M  END
>  <ID>  (1) 
conformer_0

$$$$
