
     RDKit          3D

 29 30  0  0  0  0  0  0  0  0999 V2000
    8.4622   11.2360   12.9808 C   0  0  0  0  0  0  0  0  0  0  0  0
   11.4982   14.4095   12.6305 C   0  0  0  0  0  0  0  0  0  0  0  0
   11.0940   15.4815   12.0579 C   0  0  0  0  0  0  0  0  0  0  0  0
    9.8506   14.3631   14.8738 C   0  0  0  0  0  0  0  0  0  0  0  0
    8.8399   13.7609   15.5099 N   0  0  0  0  0  0  0  0  0  0  0  0
    7.4222   10.9770   14.0086 N   0  0  0  0  0  0  0  0  0  0  0  0
   12.5952   14.7675   13.6583 O   0  0  0  0  0  0  0  0  0  0  0  0
    7.6827   12.2073   14.9805 C   0  0  0  0  0  3  0  0  0  0  0  0
   11.6065   18.2329   16.8828 O   0  0  0  0  0  0  0  0  0  0  0  0
   13.1954   20.4337   17.4662 O   0  0  0  0  0  0  0  0  0  0  0  0
   12.4901   18.0719   16.0070 P   0  0  0  0  0  4  0  0  0  0  0  0
   12.4939   16.9967   15.2109 O   0  0  0  0  0  0  0  0  0  0  0  0
    6.3463   11.7934   15.7484 N   0  0  0  0  0  0  0  0  0  0  0  0
   13.5977   22.8145   15.6516 O   0  0  0  0  0  0  0  0  0  0  0  0
   15.4872   19.9432   17.7447 O   0  0  0  0  0  0  0  0  0  0  0  0
   12.0582   16.5524   12.5294 C   0  0  0  0  0  0  0  0  0  0  0  0
   14.7108   22.2705   15.0141 P   0  0  0  0  0  5  0  0  0  0  0  0
   10.3766   14.0320   13.8747 N   0  0  0  0  0  0  0  0  0  0  0  0
   11.2778   17.2888   11.3844 O   0  0  0  0  0  0  0  0  0  0  0  0
   14.9418   20.6677   15.5036 O   0  0  0  0  0  0  0  0  0  0  0  0
   16.1014   22.7909   15.6974 O   0  0  0  0  0  0  0  0  0  0  0  0
   11.7220   14.9062   10.6829 O   0  0  0  0  0  0  0  0  0  0  0  0
    9.0825   11.8417   12.6947 N   0  0  0  0  0  0  0  0  0  0  0  0
   14.6462   22.2746   13.6483 O   0  0  0  0  0  0  0  0  0  0  0  0
    9.0936   12.8342   14.1077 C   0  0  0  0  0  0  0  0  0  0  0  0
   12.6664   19.2871   14.9898 O   0  0  0  0  0  1  0  0  0  0  0  0
   14.1493   18.2939   16.5806 O   0  0  0  0  0  0  0  0  0  0  0  0
   14.3517   20.0639   16.6861 P   0  0  0  0  0  0  0  0  0  0  0  0
   13.0226   16.6684   13.5647 C   0  0  0  0  0  0  0  0  0  0  0  0
  3  2  1  0
  5  4  2  0
  6  1  2  0
  7  2  1  0
  8  6  1  0
 11  9  1  0
 12 11  1  0
 13  8  1  0
 16  3  1  0
 17 14  1  0
 17 15  1  0
 18  2  1  0
 18  4  1  0
 19 16  1  0
 20 17  1  0
 21 17  1  0
 22  3  1  0
 23  1  1  0
 24 17  1  0
 25  5  1  0
 25  8  1  0
 25 18  1  0
 25 23  1  0
 26 11  1  0
 27 11  1  0
 28 10  1  0
 28 20  1  0
 28 27  1  0
 29 12  1  0
 29 16  1  0
M  RAD  3   8   2  11   2  26   2
M  END
>  <ID>  (1) 
conformer_0

$$$$
