
     RDKit          3D

 23 26  0  0  0  0  0  0  0  0999 V2000
   -1.5128  -20.4540  -11.6958 C   0  0  0  0  0  0  0  0  0  0  0  0
   -1.7693  -19.1182  -11.2286 C   0  0  0  0  0  0  0  0  0  0  0  0
   -1.1463  -17.9777  -14.0371 O   0  0  0  0  0  0  0  0  0  0  0  0
   -5.4491  -17.9009   -9.6235 C   0  0  0  0  0  0  0  0  0  0  0  0
   -1.8976  -20.7992  -12.8273 O   0  0  0  0  0  0  0  0  0  0  0  0
   -6.6941  -17.5978   -9.0943 C   0  0  0  0  0  0  0  0  0  0  0  0
   -4.4723  -16.9491   -9.5305 C   0  0  0  0  0  0  0  0  0  0  0  0
   -0.4129  -20.8532   -9.6116 N   0  0  0  0  0  0  0  0  0  0  0  0
   -3.1035  -17.1613  -11.4744 C   0  0  0  0  0  0  0  0  0  0  0  0
   -2.3270  -18.1489  -12.0594 C   0  0  0  0  0  0  0  0  0  0  0  0
   -3.2414  -15.1037  -12.5550 O   0  0  0  0  0  0  0  0  0  0  0  0
   -3.2857  -17.0116  -13.8551 C   0  0  0  0  0  0  0  0  0  0  0  0
   -4.6774  -15.7026   -8.9749 C   0  0  0  0  0  0  0  0  0  0  0  0
   -2.2133  -17.7796   -9.3323 C   0  0  0  0  0  0  0  0  0  0  0  0
   -3.2025  -17.2308  -10.0900 N   0  0  0  0  0  0  0  0  0  0  0  0
   -3.7826  -16.3982  -12.5206 C   0  0  0  0  0  0  0  0  0  0  0  0
   -6.9366  -16.3751   -8.5513 C   0  0  0  0  0  0  0  0  0  0  0  0
   -2.3145  -18.0098  -13.4811 C   0  0  0  0  0  0  0  0  0  0  0  0
   -0.8448  -21.2608  -10.8184 N   0  0  0  0  0  0  0  0  0  0  0  0
   -8.1341  -16.0943   -8.0039 O   0  0  0  0  0  0  0  0  0  0  0  0
   -1.5344  -18.8609   -9.8840 C   0  0  0  0  0  0  0  0  0  0  0  0
   -0.7318  -19.6652   -9.1220 N   0  0  0  0  0  0  0  0  0  0  0  0
   -5.9511  -15.4157   -8.5036 C   0  0  0  0  0  0  0  0  0  0  0  0
  1  2  1  0
  1  5  2  0
  1 19  1  0
  2 10  1  0
  2 21  1  0
  3 18  1  0
  4  6  2  0
  4  7  1  0
  6 17  1  0
  7 13  2  0
  7 15  1  0
  8 19  1  0
  8 22  2  0
  9 10  2  0
  9 15  1  0
  9 16  1  0
 10 18  1  0
 11 16  1  0
 12 16  1  0
 12 18  1  0
 13 23  1  0
 14 15  1  0
 14 21  2  0
 17 20  1  0
 17 23  2  0
 21 22  1  0
M  END
>  <ID>  (1) 
conformer_0

$$$$
