
     RDKit          3D

 19 19  0  0  0  0  0  0  0  0999 V2000
   -3.2447  -17.0158  -11.5333 C   0  0  0  0  0  0  0  0  0  0  0  0
   -5.1896  -15.8542  -10.1382 C   0  0  0  0  0  0  0  0  0  0  0  0
   -2.3073  -18.8947  -12.9801 C   0  0  0  0  0  0  0  0  0  0  0  0
   -1.8108  -20.1690  -13.1306 C   0  0  0  0  0  0  0  0  0  0  0  0
   -2.1884  -19.0893  -10.6206 C   0  0  0  0  0  0  0  0  0  0  0  0
   -5.5567  -15.9156   -8.7884 C   0  0  0  0  0  0  0  0  0  0  0  0
   -7.3606  -14.4326   -9.1425 F   0  0  0  0  0  0  0  0  0  0  0  0
   -2.9200  -16.0341  -12.3395 O   0  0  0  0  0  0  0  0  0  0  0  0
   -3.2971  -16.9194   -9.2535 C   0  0  0  0  0  0  0  0  0  0  0  0
   -1.6169  -20.3540  -10.7593 C   0  0  0  0  0  0  0  0  0  0  0  0
   -7.7525  -16.4318   -8.4725 F   0  0  0  0  0  0  0  0  0  0  0  0
   -2.4889  -17.2637   -8.4266 O   0  0  0  0  0  0  0  0  0  0  0  0
   -2.5253  -18.1374  -14.1563 O   0  0  0  0  0  0  0  0  0  0  0  0
   -6.8721  -15.3859   -8.3807 C   0  0  0  0  0  0  0  0  0  0  0  0
   -3.9415  -16.6683  -10.3317 N   0  0  0  0  0  0  0  0  0  0  0  0
   -2.5606  -18.3300  -11.6891 C   0  0  0  0  0  0  0  0  0  0  0  0
   -6.7703  -14.9435   -7.1114 F   0  0  0  0  0  0  0  0  0  0  0  0
   -1.4579  -20.8818  -12.0168 C   0  0  0  0  0  0  0  0  0  0  0  0
   -5.4148  -16.9583   -7.8456 F   0  0  0  0  0  0  0  0  0  0  0  0
  1  8  2  0
  1 15  1  0
  1 16  1  0
  2  6  1  0
  2 15  1  0
  3  4  1  0
  3 13  1  0
  3 16  1  0
  4 18  2  0
  5 10  1  0
  5 16  2  0
  6 14  1  0
  6 19  1  0
  7 14  1  0
  9 12  1  0
  9 15  1  0
 10 18  1  0
 11 14  1  0
 14 17  1  0
M  END
>  <ID>  (1) 
conformer_0

$$$$
