
     RDKit          3D

 21 22  0  0  0  0  0  0  0  0999 V2000
   -2.5015  -17.1782   -8.8178 O   0  0  0  0  0  0  0  0  0  0  0  0
   -2.4122  -15.8840  -13.5052 O   0  0  0  0  0  0  0  0  0  0  0  0
    0.4057  -19.2828   -9.7474 O   0  0  0  0  0  1  0  0  0  0  0  0
    0.5375  -20.6193  -11.8835 O   0  0  0  0  0  0  0  0  0  0  0  0
   -0.3446  -20.3216  -10.6286 P   0  0  0  0  0  4  0  0  0  0  0  0
   -0.5616  -21.6131   -9.8620 O   0  0  0  0  0  0  0  0  0  0  0  0
   -2.4788  -17.0478  -14.0220 C   0  0  0  0  0  0  0  0  0  0  0  0
   -6.6712  -17.5526   -9.1674 C   0  0  0  0  0  0  0  0  0  0  0  0
   -4.2675  -17.3592  -11.5427 C   0  0  0  0  0  0  0  0  0  0  0  0
   -4.4434  -17.7285  -10.1194 C   0  0  0  0  0  0  0  0  0  0  0  0
   -3.1001  -18.0242  -11.9696 C   0  0  0  0  0  0  0  0  0  0  0  0
   -2.3911  -18.4601  -10.7778 C   0  0  0  0  0  0  0  0  0  0  0  0
   -5.1954  -15.6741   -9.0308 C   0  0  0  0  0  0  0  0  0  0  0  0
   -7.4170  -15.4826   -8.2721 C   0  0  0  0  0  0  0  0  0  0  0  0
   -7.6431  -16.7702   -8.5834 C   0  0  0  0  0  0  0  0  0  0  0  0
   -2.3923  -18.1874  -13.1660 C   0  0  0  0  0  0  0  0  0  0  0  0
   -2.5264  -17.3034  -15.3290 N   0  0  0  0  0  0  0  0  0  0  0  0
   -6.1786  -14.9236   -8.4505 C   0  0  0  0  0  0  0  0  0  0  0  0
   -3.1160  -17.9364   -9.6763 C   0  0  0  0  0  0  0  0  0  0  0  0
   -5.4209  -17.0038   -9.4423 C   0  0  0  0  0  0  0  0  0  0  0  0
   -1.8325  -19.7535  -11.0445 C   0  0  0  0  0  0  0  0  0  0  0  0
  1 19  1  0
  2  7  2  0
  3  5  2  0
  4  5  1  0
  5  6  1  0
  5 21  1  0
  7 16  1  0
  7 17  1  0
  8 15  2  0
  8 20  1  0
  9 10  1  0
  9 11  1  0
 10 19  1  0
 10 20  1  0
 11 12  1  0
 11 16  1  0
 12 19  1  0
 12 21  1  0
 13 18  1  0
 13 20  2  0
 14 15  1  0
 14 18  2  0
M  END
>  <ID>  (1) 
conformer_0

$$$$
