
     RDKit          3D

 29 33  0  0  0  0  0  0  0  0999 V2000
   -1.3742  -18.4768  -12.8745 C   0  0  0  0  0  0  0  0  0  0  0  0
   -7.5783  -14.5570   -8.0433 C   0  0  0  0  0  0  0  0  0  0  0  0
   -7.3116  -16.6195   -8.6726 C   0  0  0  0  0  0  0  0  0  0  0  0
    0.8040  -19.2568  -13.1300 C   0  0  0  0  0  0  0  0  0  0  0  0
    0.4282  -20.3493  -12.3380 O   0  0  0  0  0  0  0  0  0  0  0  0
    1.9752  -21.6734  -13.4011 C   0  0  0  0  0  0  0  0  0  0  0  0
   -2.4276  -17.6934  -13.4329 C   0  0  0  0  0  0  0  0  0  0  0  0
   -0.9321  -19.2117  -10.3824 C   0  0  0  0  0  0  0  0  0  0  0  0
   -2.8207  -17.2842   -9.8442 C   0  0  0  0  0  0  0  0  0  0  0  0
   -1.4985  -18.5326  -11.4601 C   0  0  0  0  0  0  0  0  0  0  0  0
   -2.5600  -17.6072  -11.1447 C   0  0  0  0  0  0  0  0  0  0  0  0
   -6.1122  -14.6748   -8.3617 O   0  0  0  0  0  0  0  0  0  0  0  0
   -7.0920  -17.9227   -9.0925 N   0  0  0  0  0  0  0  0  0  0  0  0
   -3.1835  -17.0958  -12.3168 O   0  0  0  0  0  0  0  0  0  0  0  0
   -0.3587  -18.7905  -13.7786 O   0  0  0  0  0  0  0  0  0  0  0  0
   -0.2334  -20.4181  -10.3019 O   0  0  0  0  0  0  0  0  0  0  0  0
   -5.6610  -18.0989   -9.4295 C   0  0  0  0  0  0  0  0  0  0  0  0
   -5.9851  -15.9236   -8.7906 C   0  0  0  0  0  0  0  0  0  0  0  0
   -1.0544  -18.6820   -9.1263 C   0  0  0  0  0  0  0  0  0  0  0  0
   -3.5070  -15.0454   -9.2948 C   0  0  0  0  0  0  0  0  0  0  0  0
    1.9920  -20.7276  -14.5510 C   0  0  0  0  0  0  0  0  0  0  0  0
   -2.6141  -17.5770  -14.7050 O   0  0  0  0  0  0  0  0  0  0  0  0
   -2.0178  -17.7115   -8.8237 C   0  0  0  0  0  0  0  0  0  0  0  0
   -3.8397  -16.4073   -9.5060 N   0  0  0  0  0  0  0  0  0  0  0  0
    2.0059  -19.3682  -13.9392 C   0  0  0  0  0  0  0  0  0  0  0  0
   -8.1938  -15.7913   -8.2464 C   0  0  0  0  0  0  0  0  0  0  0  0
   -0.3519  -21.6971  -10.6814 C   0  0  0  0  0  0  0  0  0  0  0  0
   -5.0994  -16.8409   -9.2641 C   0  0  0  0  0  0  0  0  0  0  0  0
    1.2590  -21.4035  -12.0918 C   0  0  0  0  0  0  0  0  0  0  0  0
  1  7  1  0
  1 10  1  0
  1 15  1  0
  2 12  1  0
  2 26  1  0
  3 13  1  0
  3 18  2  0
  3 26  1  0
  4  5  1  0
  4 15  1  0
  4 25  1  0
  5 29  1  0
  6 21  1  0
  6 29  1  0
  7 14  1  0
  7 22  2  0
  8 10  1  0
  8 16  1  0
  8 19  1  0
  9 11  1  0
  9 23  2  0
  9 24  1  0
 10 11  2  0
 11 14  1  0
 12 18  1  0
 13 17  1  0
 16 27  1  0
 17 28  1  0
 18 28  1  0
 19 23  1  0
 20 24  1  0
 21 25  1  0
 24 28  1  0
M  END
>  <ID>  (1) 
conformer_0

$$$$
