
     RDKit          3D

 40 45  0  0  0  0  0  0  0  0999 V2000
   -1.8667  -17.5571  -13.5278 C   0  0  0  0  0  0  0  0  0  0  0  0
    0.5144  -19.2445  -11.4001 O   0  0  0  0  0  0  0  0  0  0  0  0
   -0.5573  -18.5729  -11.8943 C   0  0  0  0  0  0  0  0  0  0  0  0
    1.9954  -22.1617  -13.8172 N   0  0  0  0  0  0  0  0  0  0  0  0
   -4.2375  -15.9916  -10.0463 N   0  0  0  0  0  0  0  0  0  0  0  0
    1.4588  -20.5870  -15.2537 C   0  0  0  0  0  0  0  0  0  0  0  0
    0.8900  -20.2319  -13.9681 C   0  0  0  0  0  0  0  0  0  0  0  0
   -7.1309  -17.0835   -8.4216 N   0  0  0  0  0  0  0  0  0  0  0  0
   -0.2401  -19.5422   -8.9624 C   0  0  0  0  0  0  0  0  0  0  0  0
    1.1363  -19.5545  -16.1262 C   0  0  0  0  0  0  0  0  0  0  0  0
   -2.2315  -17.2775  -14.8308 O   0  0  0  0  0  0  0  0  0  0  0  0
    1.9462  -22.7266  -11.0357 O   0  0  0  0  0  0  0  0  0  0  0  0
   -1.3422  -18.0481  -10.9534 C   0  0  0  0  0  0  0  0  0  0  0  0
    1.3098  -21.2253  -12.9469 C   0  0  0  0  0  0  0  0  0  0  0  0
   -8.7837  -14.0452   -7.6682 C   0  0  0  0  0  0  0  0  0  0  0  0
   -6.2762  -15.2151   -7.1253 C   0  0  0  0  0  0  0  0  0  0  0  0
   -2.4155  -16.8086   -8.8508 O   0  0  0  0  0  0  0  0  0  0  0  0
   -7.2437  -15.7860   -7.9839 C   0  0  0  0  0  0  0  0  0  0  0  0
    2.4969  -22.5240  -16.2551 C   0  0  0  0  0  0  0  0  0  0  0  0
   -2.6742  -16.9653  -12.5392 C   0  0  0  0  0  0  0  0  0  0  0  0
    0.0799  -19.0893  -14.1729 C   0  0  0  0  0  0  0  0  0  0  0  0
   -2.3735  -17.1942  -11.2071 C   0  0  0  0  0  0  0  0  0  0  0  0
   -7.3926  -19.2353   -8.8356 C   0  0  0  0  0  0  0  0  0  0  0  0
   -6.1366  -18.8494   -9.5202 C   0  0  0  0  0  0  0  0  0  0  0  0
   -6.0340  -17.5038   -9.2112 C   0  0  0  0  0  0  0  0  0  0  0  0
    2.0705  -21.7896  -15.1602 C   0  0  0  0  0  0  0  0  0  0  0  0
    3.1507  -22.8817  -13.4308 C   0  0  0  0  0  0  0  0  0  0  0  0
   -0.7992  -22.1388  -10.2060 O   0  0  0  0  0  0  0  0  0  0  0  0
    1.1818  -21.7122  -11.5865 C   0  0  0  0  0  0  0  0  0  0  0  0
   -3.0150  -16.6763  -10.0346 C   0  0  0  0  0  0  0  0  0  0  0  0
   -8.4079  -15.1116   -8.4318 C   0  0  0  0  0  0  0  0  0  0  0  0
   -5.2167  -16.5158   -9.4234 C   0  0  0  0  0  0  0  0  0  0  0  0
    0.2014  -21.3558  -10.5489 C   0  0  0  0  0  0  0  0  0  0  0  0
   -7.9924  -18.0753   -8.2023 O   0  0  0  0  0  0  0  0  0  0  0  0
   -0.7777  -18.4068  -13.2711 C   0  0  0  0  0  0  0  0  0  0  0  0
   -6.7753  -14.1618   -6.3342 O   0  0  0  0  0  0  0  0  0  0  0  0
    0.2745  -18.6196  -15.4634 O   0  0  0  0  0  0  0  0  0  0  0  0
    0.2410  -20.0041  -10.2572 C   0  0  0  0  0  0  0  0  0  0  0  0
    2.3718  -21.8232  -17.4835 O   0  0  0  0  0  0  0  0  0  0  0  0
   -8.0043  -13.6323   -6.6324 C   0  0  0  0  0  0  0  0  0  0  0  0
  1 11  1  0
  1 20  2  0
  1 35  1  0
  2  3  1  0
  2 38  1  0
  3 13  1  0
  3 35  2  0
  4 14  1  0
  4 26  1  0
  4 27  1  0
  5 30  1  0
  5 32  1  0
  6  7  1  0
  6 10  1  0
  6 26  2  0
  7 14  1  0
  7 21  2  0
  8 18  1  0
  8 25  1  0
  8 34  1  0
  9 38  1  0
 10 37  1  0
 12 29  1  0
 13 22  2  0
 14 29  1  0
 15 31  1  0
 15 40  2  0
 16 18  1  0
 16 36  1  0
 17 30  2  0
 18 31  1  0
 19 26  1  0
 19 39  1  0
 20 22  1  0
 21 35  1  0
 21 37  1  0
 22 30  1  0
 23 24  1  0
 23 34  1  0
 24 25  1  0
 25 32  2  3
 28 33  1  0
 29 33  1  0
 33 38  1  0
 36 40  1  0
M  END
>  <ID>  (1) 
conformer_0

$$$$
