
     RDKit          3D

 25 29  0  0  0  0  0  0  0  0999 V2000
   -1.1867  -20.4763  -10.4225 C   0  0  0  0  0  0  0  0  0  0  0  0
   -2.1984  -21.7243  -12.6558 C   0  0  0  0  0  0  0  0  0  0  0  0
   -4.2687  -15.9927   -9.0937 C   0  0  0  0  0  0  0  0  0  0  0  0
   -6.5112  -15.1470   -8.1541 C   0  0  0  0  0  0  0  0  0  0  0  0
   -2.2611  -18.1069  -13.6375 C   0  0  0  0  0  0  0  0  0  0  0  0
   -1.0239  -17.9100  -14.0656 O   0  0  0  0  0  0  0  0  0  0  0  0
   -3.2818  -16.4094  -12.5029 C   0  0  0  0  0  0  0  0  0  0  0  0
   -5.1934  -18.0522   -9.7489 C   0  0  0  0  0  0  0  0  0  0  0  0
   -1.7103  -17.6858   -9.0139 C   0  0  0  0  0  0  0  0  0  0  0  0
   -0.5468  -19.8054   -9.4257 C   0  0  0  0  0  0  0  0  0  0  0  0
   -7.4314  -17.2492   -8.7694 C   0  0  0  0  0  0  0  0  0  0  0  0
   -6.3679  -17.7014   -9.2889 C   0  0  0  0  0  0  0  0  0  0  0  0
   -5.3697  -15.4710   -8.6525 C   0  0  0  0  0  0  0  0  0  0  0  0
   -1.9512  -19.7583  -11.3370 C   0  0  0  0  0  0  0  0  0  0  0  0
   -2.6235  -17.6893  -12.1814 C   0  0  0  0  0  0  0  0  0  0  0  0
   -7.6550  -15.9869   -8.1456 C   0  0  0  0  0  0  0  0  0  0  0  0
   -4.0100  -17.2769   -9.6409 C   0  0  0  0  0  0  0  0  0  0  0  0
   -2.7427  -17.8268   -9.9222 C   0  0  0  0  0  0  0  0  0  0  0  0
   -2.2557  -20.3338  -12.5568 C   0  0  0  0  0  0  0  0  0  0  0  0
   -3.0648  -16.7953  -14.0313 O   0  0  0  0  0  0  0  0  0  0  0  0
   -2.4140  -18.4812  -11.1003 N   0  0  0  0  0  0  0  0  0  0  0  0
   -1.6134  -22.4937  -11.6487 C   0  0  0  0  0  0  0  0  0  0  0  0
   -2.5809  -19.5689  -13.6688 N   0  0  0  0  0  0  0  0  0  0  0  0
   -1.0707  -21.8704  -10.5489 C   0  0  0  0  0  0  0  0  0  0  0  0
   -0.7240  -18.5855   -8.9253 C   0  0  0  0  0  0  0  0  0  0  0  0
  1 10  1  0
  1 14  1  0
  1 24  2  0
  2 19  1  0
  2 22  2  0
  3 13  2  0
  3 17  1  0
  4 13  2  0
  4 16  1  0
  5  6  1  0
  5 15  1  0
  5 20  1  0
  5 23  1  0
  7 15  1  0
  7 20  1  0
  8 12  2  0
  8 17  1  0
  9 18  1  0
  9 25  2  0
 10 25  1  0
 11 12  2  0
 11 16  1  0
 14 19  1  0
 14 21  1  0
 15 21  1  0
 17 18  1  0
 18 21  1  0
 19 23  1  0
 22 24  1  0
M  END
>  <ID>  (1) 
conformer_0

$$$$
