
     RDKit          3D

 11 11  0  0  0  0  0  0  0  0999 V2000
   -5.7517  -17.2887   -9.6212 C   0  0  0  0  0  0  0  0  0  0  0  0
   -5.3737  -16.1192   -8.9694 C   0  0  0  0  0  0  0  0  0  0  0  0
   -2.6655  -17.7920  -13.2170 C   0  0  0  0  0  0  0  0  0  0  0  0
   -3.5339  -16.9649  -12.5720 C   0  0  0  0  0  0  0  0  0  0  0  0
   -5.0742  -17.6590  -10.7503 C   0  0  0  0  0  0  0  0  0  0  0  0
   -6.8917  -18.0517   -9.0402 C   0  0  0  0  0  0  0  0  0  0  0  0
   -3.5811  -15.8298  -10.4413 C   0  0  0  0  0  0  0  0  0  0  0  0
   -6.1843  -15.5972   -7.9972 F   0  0  0  0  0  0  0  0  0  0  0  0
   -2.7183  -17.4975  -14.6691 O   0  0  0  0  0  0  0  0  0  0  0  0
   -4.0244  -16.8620  -11.2213 C   0  0  0  0  0  0  0  0  0  0  0  0
   -4.2479  -15.4476   -9.3359 C   0  0  0  0  0  0  0  0  0  0  0  0
  1  2  2  0
  1  5  1  0
  1  6  1  0
  2  8  1  0
  2 11  1  0
  3  4  1  0
  3  9  1  0
  4 10  1  0
  5 10  2  0
  7 10  1  0
  7 11  2  0
M  END
>  <ID>  (1) 
conformer_0

$$$$
