
     RDKit          3D

 30 32  0  0  0  0  0  0  0  0999 V2000
   -3.4908  -16.2852  -12.6417 N   0  0  0  0  0  0  0  0  0  0  0  0
    0.4034  -20.4514  -10.8740 C   0  0  0  0  0  0  0  0  0  0  0  0
   -2.8057  -17.4225  -12.4581 C   0  0  0  0  0  0  0  0  0  0  0  0
    2.0843  -19.9339  -13.2581 O   0  0  0  0  0  0  0  0  0  0  0  0
   -7.4881  -17.3422   -8.8104 C   0  0  0  0  0  0  0  0  0  0  0  0
   -8.2722  -16.3146   -8.2984 C   0  0  0  0  0  0  0  0  0  0  0  0
    0.6865  -20.0191  -15.3309 O   0  0  0  0  0  0  0  0  0  0  0  0
   -1.8373  -17.5292   -8.7996 S   0  0  0  0  0  0  0  0  0  0  0  0
   -0.6140  -19.8647  -13.0557 C   0  0  0  0  0  0  0  0  0  0  0  0
    0.6502  -21.9706  -13.8105 O   0  0  0  0  0  0  0  0  0  0  0  0
   -7.6480  -15.1546   -8.0031 C   0  0  0  0  0  0  0  0  0  0  0  0
   -4.1325  -15.7293   -8.9343 C   0  0  0  0  0  0  0  0  0  0  0  0
   -2.7353  -17.5877  -14.8050 O   0  0  0  0  0  0  0  0  0  0  0  0
   -0.8461  -18.5888   -9.6645 C   0  0  0  0  0  0  0  0  0  0  0  0
   -6.1629  -17.1833   -9.0968 C   0  0  0  0  0  0  0  0  0  0  0  0
    1.0994  -21.7032  -10.9155 C   0  0  0  0  0  0  0  0  0  0  0  0
    1.5923  -19.1877   -9.0232 O   0  0  0  0  0  0  0  0  0  0  0  0
   -2.2163  -17.7973  -11.2929 C   0  0  0  0  0  0  0  0  0  0  0  0
   -0.3408  -20.5485   -8.3036 O   0  0  0  0  0  0  0  0  0  0  0  0
   -5.5724  -16.0021   -8.7748 C   0  0  0  0  0  0  0  0  0  0  0  0
   -1.8037  -19.4783  -13.6753 C   0  0  0  0  0  0  0  0  0  0  0  0
   -8.3750  -14.1446   -7.4897 F   0  0  0  0  0  0  0  0  0  0  0  0
   -6.3022  -14.9773   -8.1817 C   0  0  0  0  0  0  0  0  0  0  0  0
    0.3243  -19.7332   -9.2297 P   0  0  0  0  0  0  0  0  0  0  0  0
   -3.7204  -16.4236  -10.1196 O   0  0  0  0  0  0  0  0  0  0  0  0
   -2.4214  -18.1576  -13.6470 C   0  0  0  0  0  0  0  0  0  0  0  0
   -0.4053  -19.6316  -11.6916 N   0  0  0  0  0  0  0  0  0  0  0  0
   -1.1565  -18.6810  -10.9774 C   0  0  0  0  0  0  0  0  0  0  0  0
   -2.6752  -17.2012  -10.1121 C   0  0  0  0  0  0  0  0  0  0  0  0
    0.8155  -20.4966  -13.9413 S   0  0  0  0  0  4  0  0  0  0  0  0
  1  3  1  0
  2 16  1  0
  2 27  1  0
  3 18  1  0
  3 26  1  0
  4 30  1  0
  5  6  1  0
  5 15  1  0
  6 11  2  0
  7 30  1  0
  8 14  1  0
  8 29  1  0
  9 21  1  0
  9 27  1  0
  9 30  1  0
 10 30  1  0
 11 22  1  0
 11 23  1  0
 12 20  1  0
 12 25  1  0
 13 26  1  0
 14 24  1  0
 14 28  2  0
 15 20  2  0
 17 24  1  0
 18 28  1  0
 18 29  2  0
 19 24  1  0
 20 23  1  0
 21 26  1  0
 25 29  1  0
 27 28  1  0
M  END
>  <ID>  (1) 
conformer_0

$$$$
