
     RDKit          3D

 16 17  0  0  0  0  0  0  0  0999 V2000
   -4.6487  -15.8528  -10.3257 C   0  0  0  0  0  0  0  0  0  0  0  0
   -3.4037  -18.8969  -12.0827 C   0  0  0  0  0  0  0  0  0  0  0  0
   -5.4094  -17.8975   -9.3666 C   0  0  0  0  0  0  0  0  0  0  0  0
   -7.4853  -16.4435   -8.5368 F   0  0  0  0  0  0  0  0  0  0  0  0
   -2.3009  -17.8403  -13.9173 C   0  0  0  0  0  0  0  0  0  0  0  0
   -4.0269  -18.0162  -11.2202 C   0  0  0  0  0  0  0  0  0  0  0  0
   -6.2486  -16.0366   -8.2341 C   0  0  0  0  0  0  0  0  0  0  0  0
   -4.7246  -18.6295  -10.1945 C   0  0  0  0  0  0  0  0  0  0  0  0
   -2.6191  -16.5937  -13.4476 C   0  0  0  0  0  0  0  0  0  0  0  0
   -3.9813  -16.6212  -11.3062 C   0  0  0  0  0  0  0  0  0  0  0  0
   -2.7232  -18.9776  -13.1768 C   0  0  0  0  0  0  0  0  0  0  0  0
   -6.3237  -14.8190   -7.9236 F   0  0  0  0  0  0  0  0  0  0  0  0
   -1.6486  -17.9357  -15.0108 F   0  0  0  0  0  0  0  0  0  0  0  0
   -3.2620  -16.1102  -12.3988 C   0  0  0  0  0  0  0  0  0  0  0  0
   -5.7405  -16.6913   -7.1633 F   0  0  0  0  0  0  0  0  0  0  0  0
   -5.4140  -16.5249   -9.3783 C   0  0  0  0  0  0  0  0  0  0  0  0
  1 10  2  0
  1 16  1  0
  2  6  2  0
  2 11  1  0
  3  8  2  0
  3 16  1  0
  4  7  1  0
  5  9  1  0
  5 11  2  0
  5 13  1  0
  6  8  1  0
  6 10  1  0
  7 12  1  0
  7 15  1  0
  7 16  1  0
  9 14  2  0
 10 14  1  0
M  END
>  <ID>  (1) 
conformer_0

$$$$
