
     RDKit          3D

 23 27  0  0  0  0  0  0  0  0999 V2000
   -5.8197  -17.2874   -9.4525 C   0  0  0  0  0  0  0  0  0  0  0  0
   -2.4827  -17.6297  -14.2574 C   0  0  0  0  0  0  0  0  0  0  0  0
   -2.4903  -16.6109  -13.2655 C   0  0  0  0  0  0  0  0  0  0  0  0
   -1.9687  -19.2022  -11.3114 C   0  0  0  0  0  0  0  0  0  0  0  0
   -2.4090  -17.0370  -10.5483 N   0  0  0  0  0  0  0  0  0  0  0  0
   -0.9180  -18.6952   -9.2619 C   0  0  0  0  0  0  0  0  0  0  0  0
   -7.7355  -15.8434   -8.1685 C   0  0  0  0  0  0  0  0  0  0  0  0
   -0.5650  -20.8534  -10.3520 C   0  0  0  0  0  0  0  0  0  0  0  0
   -4.7288  -17.8755  -10.1374 C   0  0  0  0  0  0  0  0  0  0  0  0
   -1.9052  -17.6704  -15.7741 S   0  0  0  0  0  0  0  0  0  0  0  0
   -4.4015  -15.5628   -9.6630 O   0  0  0  0  0  0  0  0  0  0  0  0
   -5.6211  -15.9688   -9.1804 C   0  0  0  0  0  0  0  0  0  0  0  0
   -1.7288  -18.3353  -10.2865 C   0  0  0  0  0  0  0  0  0  0  0  0
   -1.4097  -20.4395  -11.3670 C   0  0  0  0  0  0  0  0  0  0  0  0
   -3.2913  -17.0888   -8.3995 O   0  0  0  0  0  0  0  0  0  0  0  0
   -3.6002  -16.8827   -9.6802 C   0  0  0  0  0  0  0  0  0  0  0  0
   -7.9550  -17.1675   -8.4137 C   0  0  0  0  0  0  0  0  0  0  0  0
   -2.8484  -17.1575  -11.9773 C   0  0  0  0  0  0  0  0  0  0  0  0
   -6.5759  -15.2058   -8.5330 C   0  0  0  0  0  0  0  0  0  0  0  0
   -2.6048  -18.8476  -13.5801 N   0  0  0  0  0  0  0  0  0  0  0  0
   -0.3173  -19.9841   -9.2845 C   0  0  0  0  0  0  0  0  0  0  0  0
   -6.9906  -17.9202   -9.0895 C   0  0  0  0  0  0  0  0  0  0  0  0
   -2.8656  -18.6602  -12.2876 C   0  0  0  0  0  0  0  0  0  0  0  0
  1  9  1  0
  1 12  1  0
  1 22  2  0
  2  3  1  0
  2 10  2  0
  2 20  1  0
  3 18  1  0
  4 13  2  0
  4 14  1  0
  4 23  1  0
  5 13  1  0
  5 16  1  0
  5 18  1  0
  6 13  1  0
  6 21  2  0
  7 17  2  0
  7 19  1  0
  8 14  2  0
  8 21  1  0
  9 16  1  0
 11 12  1  0
 11 16  1  0
 12 19  2  0
 15 16  1  0
 17 22  1  0
 18 23  1  0
 20 23  1  0
M  END
>  <ID>  (1) 
conformer_0

$$$$
