
     RDKit          3D

 21 23  0  0  0  0  0  0  0  0999 V2000
   -7.0193  -15.2373   -8.4146 C   0  0  0  0  0  0  0  0  0  0  0  0
   -2.1507  -19.0384  -12.2655 C   0  0  0  0  0  0  0  0  0  0  0  0
   -0.8447  -17.2135   -8.1093 O   0  0  0  0  0  0  0  0  0  0  0  0
   -9.1407  -15.9785   -7.8687 F   0  0  0  0  0  0  0  0  0  0  0  0
   -1.8474  -17.4480   -8.9075 C   0  0  0  0  0  0  0  0  0  0  0  0
   -7.5406  -17.4660   -8.7684 C   0  0  0  0  0  0  0  0  0  0  0  0
   -4.1185  -16.7930  -12.1298 N   0  0  0  0  0  0  0  0  0  0  0  0
   -6.2755  -17.6959   -9.2262 C   0  0  0  0  0  0  0  0  0  0  0  0
   -3.5670  -17.3473  -10.9411 C   0  0  0  0  0  0  0  0  0  0  0  0
   -2.4616  -18.1578  -11.0646 C   0  0  0  0  0  0  0  0  0  0  0  0
   -4.0078  -16.9595   -9.6725 C   0  0  0  0  0  0  0  0  0  0  0  0
   -5.7775  -15.3758   -8.9507 C   0  0  0  0  0  0  0  0  0  0  0  0
   -5.3637  -16.6667   -9.3198 C   0  0  0  0  0  0  0  0  0  0  0  0
   -7.4017  -14.0720   -7.8191 F   0  0  0  0  0  0  0  0  0  0  0  0
   -3.0602  -16.9115   -8.6721 C   0  0  0  0  0  0  0  0  0  0  0  0
   -1.6405  -18.2519   -9.9796 N   0  0  0  0  0  0  0  0  0  0  0  0
   -0.5428  -19.1830   -9.9924 C   0  0  0  0  0  0  0  0  0  0  0  0
   -1.4069  -18.2619  -13.3887 C   0  0  0  0  0  0  0  0  0  0  0  0
   -7.8955  -16.2307   -8.3591 C   0  0  0  0  0  0  0  0  0  0  0  0
   -2.5516  -17.6582  -14.2629 C   0  0  0  0  0  0  0  0  0  0  0  0
   -3.4568  -16.9121  -13.3542 C   0  0  0  0  0  0  0  0  0  0  0  0
  1 12  2  0
  1 14  1  0
  1 19  1  0
  2 10  1  0
  2 18  1  0
  3  5  2  0
  4 19  1  0
  5 15  1  0
  5 16  1  0
  6  8  1  0
  6 19  2  0
  7  9  2  0
  7 21  1  0
  8 13  2  0
  9 10  1  0
  9 11  1  0
 10 16  1  0
 11 13  1  0
 11 15  2  0
 12 13  1  0
 16 17  1  0
 18 20  1  0
 20 21  1  0
M  END
>  <ID>  (1) 
conformer_0

$$$$
