
     RDKit          3D

 29 31  0  0  0  0  0  0  0  0999 V2000
   -2.7668  -17.4607  -13.6449 C   0  0  0  0  0  0  0  0  0  0  0  0
   -2.1368  -18.0574  -11.3214 N   0  0  0  0  0  0  0  0  0  0  0  0
   -7.8089  -17.6996   -7.0949 F   0  0  0  0  0  0  0  0  0  0  0  0
   -8.4541  -17.3405   -9.1898 F   0  0  0  0  0  0  0  0  0  0  0  0
   -3.2283  -17.9869  -12.4123 C   0  0  0  0  0  0  0  0  0  0  0  0
    0.7302  -19.4061  -14.5822 C   0  0  0  0  0  0  0  0  0  0  0  0
   -0.4784  -18.8242  -13.8546 C   0  0  0  0  0  0  0  0  0  0  0  0
   -3.0109  -16.5142   -9.6521 N   0  0  0  0  0  0  0  0  0  0  0  0
   -9.0753  -15.4669   -7.5332 F   0  0  0  0  0  0  0  0  0  0  0  0
   -0.1633  -19.4823  -12.5415 C   0  0  0  0  0  0  0  0  0  0  0  0
    0.1919  -20.0810   -9.5639 N   0  0  0  0  0  0  0  0  0  0  0  0
   -6.4499  -16.5788   -8.6366 C   0  0  0  0  0  0  0  0  0  0  0  0
   -7.4254  -17.6010   -8.4208 C   0  0  0  0  0  0  0  0  0  0  0  0
    1.0746  -20.8009  -10.2129 O   0  0  0  0  0  1  0  0  0  0  0  0
   -6.9505  -18.8227   -8.7312 F   0  0  0  0  0  0  0  0  0  0  0  0
   -7.3882  -14.5080   -6.4450 F   0  0  0  0  0  0  0  0  0  0  0  0
   -5.4005  -16.7140   -9.2443 C   0  0  0  0  0  0  0  0  0  0  0  0
    1.1556  -20.1400  -13.2038 C   0  0  0  0  0  0  0  0  0  0  0  0
   -2.3219  -17.5678  -10.0614 C   0  0  0  0  0  0  0  0  0  0  0  0
   -1.6278  -18.2243  -14.3360 C   0  0  0  0  0  0  0  0  0  0  0  0
   -6.9272  -15.3676   -8.4061 N   0  0  0  0  0  0  0  0  0  0  0  0
   -2.4992  -16.0365  -13.6171 O   0  0  0  0  0  0  0  0  0  0  0  0
   -0.6527  -19.0934  -10.0840 C   0  0  0  0  0  0  0  0  0  0  0  0
   -7.8184  -15.0406   -7.5105 C   0  0  0  0  0  0  0  0  0  0  0  0
    0.0379  -20.3863   -8.2589 O   0  0  0  0  0  1  0  0  0  0  0  0
   -1.0219  -18.8911  -11.4155 C   0  0  0  0  0  0  0  0  0  0  0  0
   -1.6269  -17.8519  -15.7165 O   0  0  0  0  0  0  0  0  0  0  0  0
   -1.3395  -18.2153   -9.2600 C   0  0  0  0  0  0  0  0  0  0  0  0
   -4.2722  -16.1517   -9.4104 C   0  0  0  0  0  0  0  0  0  0  0  0
  1  5  1  0
  1 20  1  0
  1 22  1  0
  2  5  1  0
  2 19  1  0
  2 26  1  0
  3 13  1  0
  4 13  1  0
  6  7  1  0
  6 18  1  0
  7 10  1  0
  7 20  1  0
  8 19  2  3
  8 29  1  0
  9 24  1  0
 10 18  1  0
 10 26  1  0
 11 14  1  0
 11 23  1  0
 11 25  1  0
 12 13  1  0
 12 17  1  0
 12 21  1  0
 13 15  1  0
 16 24  1  0
 17 29  1  0
 19 28  1  0
 20 27  1  0
 21 24  1  0
 23 26  1  0
 23 28  1  0
M  END
>  <ID>  (1) 
conformer_0

$$$$
