
     RDKit          3D

 21 24  0  0  0  0  0  0  0  0999 V2000
   -6.9088  -15.3842   -8.0975 C   0  0  0  0  0  0  0  0  0  0  0  0
   -5.2861  -18.3649  -10.3225 C   0  0  0  0  0  0  0  0  0  0  0  0
   -7.4284  -14.3173   -7.4542 F   0  0  0  0  0  0  0  0  0  0  0  0
   -3.2274  -16.9415  -12.5237 C   0  0  0  0  0  0  0  0  0  0  0  0
   -4.9880  -16.5327   -8.9852 C   0  0  0  0  0  0  0  0  0  0  0  0
   -2.0661  -18.5783  -13.8015 O   0  0  0  0  0  0  0  0  0  0  0  0
   -3.1574  -18.1032  -11.5618 C   0  0  0  0  0  0  0  0  0  0  0  0
   -1.3002  -18.0877   -9.5952 C   0  0  0  0  0  0  0  0  0  0  0  0
   -3.7502  -17.0069   -9.3963 C   0  0  0  0  0  0  0  0  0  0  0  0
   -3.9850  -17.9412  -10.4140 C   0  0  0  0  0  0  0  0  0  0  0  0
   -2.7855  -17.3100  -13.9106 C   0  0  0  0  0  0  0  0  0  0  0  0
   -0.1972  -19.8068  -12.8216 C   0  0  0  0  0  0  0  0  0  0  0  0
   -2.4530  -17.0313   -8.9507 N   0  0  0  0  0  0  0  0  0  0  0  0
   -1.1501  -18.6717  -12.7213 C   0  0  0  0  0  0  0  0  0  0  0  0
   -5.9348  -17.4634   -9.4995 C   0  0  0  0  0  0  0  0  0  0  0  0
   -0.2242  -17.3493   -9.0904 O   0  0  0  0  0  0  0  0  0  0  0  0
   -7.2358  -17.4291   -9.2215 C   0  0  0  0  0  0  0  0  0  0  0  0
   -5.5338  -15.4125   -8.3589 C   0  0  0  0  0  0  0  0  0  0  0  0
   -1.6373  -18.2612  -11.2623 C   0  0  0  0  0  0  0  0  0  0  0  0
   -0.9911  -19.4865   -9.2679 O   0  0  0  0  0  0  0  0  0  0  0  0
   -7.7308  -16.3827   -8.4792 C   0  0  0  0  0  0  0  0  0  0  0  0
  1  3  1  0
  1 18  2  0
  1 21  1  0
  2 10  1  0
  2 15  1  0
  4  7  1  0
  4 11  1  0
  5  9  1  0
  5 15  2  0
  5 18  1  0
  6 11  1  0
  6 14  1  0
  7 10  1  0
  7 19  1  0
  8 13  1  0
  8 16  1  0
  8 19  1  0
  8 20  1  0
  9 10  1  0
  9 13  2  0
 12 14  1  0
 14 19  1  0
 15 17  1  0
 17 21  2  0
M  END
>  <ID>  (1) 
conformer_0

$$$$
