
     RDKit          3D

 13 13  0  0  0  0  0  0  0  0999 V2000
   -4.4925  -15.9020   -8.7270 C   0  0  0  0  0  0  0  0  0  0  0  0
   -6.8832  -16.6441   -8.8512 C   0  0  0  0  0  0  0  0  0  0  0  0
   -1.5263  -18.2391  -13.5764 O   0  0  0  0  0  0  0  0  0  0  0  0
   -3.6655  -17.6734  -10.7012 C   0  0  0  0  0  0  0  0  0  0  0  0
   -7.3099  -15.2310   -8.4810 C   0  0  0  0  0  0  0  0  0  0  0  0
   -7.4759  -18.0351   -8.6054 C   0  0  0  0  0  0  0  0  0  0  0  0
   -2.5695  -17.7764  -13.0155 C   0  0  0  0  0  0  0  0  0  0  0  0
   -5.4415  -16.7492   -9.3055 C   0  0  0  0  0  0  0  0  0  0  0  0
   -3.1699  -15.9708   -9.0868 C   0  0  0  0  0  0  0  0  0  0  0  0
   -3.0406  -16.6112  -13.2916 O   0  0  0  0  0  0  0  0  0  0  0  0
   -3.1403  -18.5491  -11.8138 C   0  0  0  0  0  0  0  0  0  0  0  0
   -2.7521  -16.8315  -10.0636 C   0  0  0  0  0  0  0  0  0  0  0  0
   -4.9931  -17.6434  -10.2753 C   0  0  0  0  0  0  0  0  0  0  0  0
  1  8  2  0
  1  9  1  0
  2  5  1  0
  2  6  1  0
  2  8  1  0
  3  7  2  0
  4 11  1  0
  4 12  1  0
  4 13  2  0
  7 10  1  0
  7 11  1  0
  8 13  1  0
  9 12  2  0
M  END
>  <ID>  (1) 
conformer_0

$$$$
