
     RDKit          3D

 20 20  0  0  0  0  0  0  0  0999 V2000
   -6.9357  -18.0691   -8.9970 C   0  0  0  0  0  0  0  0  0  0  0  0
   -1.5715  -18.7877   -8.2867 C   0  0  0  0  0  0  0  0  0  0  0  0
   -3.4167  -17.3014   -9.3063 C   0  0  0  0  0  0  0  0  0  0  0  0
   -3.1610  -17.2551  -10.6857 C   0  0  0  0  0  0  0  0  0  0  0  0
   -1.7788  -18.2133  -12.4851 C   0  0  0  0  0  0  0  0  0  0  0  0
   -2.6166  -16.0390  -13.1774 O   0  0  0  0  0  0  0  0  0  0  0  0
   -1.9866  -18.0094  -11.0821 C   0  0  0  0  0  0  0  0  0  0  0  0
   -1.0133  -19.3973  -12.7813 C   0  0  0  0  0  0  0  0  0  0  0  0
   -2.5098  -17.6262   -8.2677 C   0  0  0  0  0  0  0  0  0  0  0  0
   -2.4378  -17.3322  -13.4307 C   0  0  0  0  0  0  0  0  0  0  0  0
   -1.9388  -18.5805   -6.7474 O   0  0  0  0  0  0  0  0  0  0  0  0
   -5.6541  -17.9789   -9.6859 C   0  0  0  0  0  0  0  0  0  0  0  0
   -5.2792  -15.8271   -8.5209 C   0  0  0  0  0  0  0  0  0  0  0  0
   -2.6533  -17.7768  -14.7864 C   0  0  0  0  0  0  0  0  0  0  0  0
   -7.5628  -16.7854   -8.7609 C   0  0  0  0  0  0  0  0  0  0  0  0
   -4.7405  -17.0795   -8.9587 C   0  0  0  0  0  0  0  0  0  0  0  0
   -1.5035  -18.8210  -10.1076 N   0  0  0  0  0  0  0  0  0  0  0  0
   -0.5745  -19.5835   -8.2378 O   0  0  0  0  0  0  0  0  0  0  0  0
   -6.6845  -15.6691   -8.5271 C   0  0  0  0  0  0  0  0  0  0  0  0
   -7.4657  -14.5488   -8.1626 C   0  0  0  0  0  0  0  0  0  0  0  0
  1 12  1  0
  1 15  1  0
  2  9  1  0
  2 11  2  0
  2 18  1  0
  3  4  1  0
  3  9  1  0
  3 16  1  0
  4  7  1  0
  5  7  1  0
  5  8  1  0
  5 10  1  0
  6 10  1  0
  7 17  1  0
 10 14  1  0
 12 16  1  0
 13 16  2  0
 13 19  1  0
 15 19  2  0
 19 20  1  0
M  END
>  <ID>  (1) 
conformer_0

$$$$
