
     RDKit          3D

 22 24  0  0  0  0  0  0  0  0999 V2000
   -6.7747  -15.8352   -8.3999 C   0  0  0  0  0  0  0  0  0  0  0  0
   -2.2519  -18.2815  -13.8138 C   0  0  0  0  0  0  0  0  0  0  0  0
   -5.9319  -17.8621   -9.5074 C   0  0  0  0  0  0  0  0  0  0  0  0
   -6.3546  -15.0862   -7.4464 F   0  0  0  0  0  0  0  0  0  0  0  0
   -0.1665  -20.2942  -10.3916 C   0  0  0  0  0  0  0  0  0  0  0  0
   -3.9117  -16.2489  -10.3891 C   0  0  0  0  0  0  0  0  0  0  0  0
   -2.7794  -17.5844  -14.7941 O   0  0  0  0  0  0  0  0  0  0  0  0
   -4.8757  -15.7332   -9.5796 C   0  0  0  0  0  0  0  0  0  0  0  0
   -3.8754  -17.5773  -10.7115 C   0  0  0  0  0  0  0  0  0  0  0  0
   -0.8022  -18.2834  -13.4951 C   0  0  0  0  0  0  0  0  0  0  0  0
   -3.0308  -15.4430  -10.8857 O   0  0  0  0  0  0  0  0  0  0  0  0
   -0.0715  -21.5781  -10.3102 O   0  0  0  0  0  0  0  0  0  0  0  0
   -0.4829  -19.6805  -12.8568 C   0  0  0  0  0  0  0  0  0  0  0  0
   -0.9676  -19.6972  -11.4360 C   0  0  0  0  0  0  0  0  0  0  0  0
   -2.7789  -17.9925  -11.5105 N   0  0  0  0  0  0  0  0  0  0  0  0
   -7.9795  -15.7411   -8.7635 F   0  0  0  0  0  0  0  0  0  0  0  0
   -3.1576  -18.7074  -12.7256 C   0  0  0  0  0  0  0  0  0  0  0  0
   -4.8655  -18.4066  -10.2951 C   0  0  0  0  0  0  0  0  0  0  0  0
   -0.3347  -19.5160   -9.1662 C   0  0  0  0  0  0  0  0  0  0  0  0
   -5.8885  -16.5379   -9.1601 C   0  0  0  0  0  0  0  0  0  0  0  0
   -1.3914  -18.4707   -9.4582 C   0  0  0  0  0  0  0  0  0  0  0  0
   -1.5003  -18.3602  -10.9882 C   0  0  0  0  0  0  0  0  0  0  0  0
  1  4  1  0
  1 16  1  0
  1 20  1  0
  2  7  1  0
  2 10  1  0
  2 17  1  0
  3 18  2  0
  3 20  1  0
  5 12  1  0
  5 14  1  0
  5 19  1  0
  6  8  1  0
  6  9  2  0
  6 11  1  0
  8 20  2  0
  9 15  1  0
  9 18  1  0
 10 13  1  0
 13 14  1  0
 14 22  1  0
 15 17  1  0
 15 22  1  0
 19 21  1  0
 21 22  1  0
M  END
>  <ID>  (1) 
conformer_0

$$$$
