
     RDKit          3D

 15 15  0  0  0  0  0  0  0  0999 V2000
   -3.7276  -17.7714  -10.4483 C   0  0  0  0  0  0  0  0  0  0  0  0
   -6.9638  -16.7456   -9.8021 F   0  0  0  0  0  0  0  0  0  0  0  0
   -4.5299  -15.7712   -9.1611 C   0  0  0  0  0  0  0  0  0  0  0  0
   -2.6884  -19.7434  -11.7114 C   0  0  0  0  0  0  0  0  0  0  0  0
   -5.3751  -16.5694   -8.3516 C   0  0  0  0  0  0  0  0  0  0  0  0
   -3.9868  -15.6914  -11.5482 C   0  0  0  0  0  0  0  0  0  0  0  0
   -2.5166  -18.0149  -13.9385 O   0  0  0  0  0  0  0  0  0  0  0  0
   -4.0624  -16.4394  -10.4096 C   0  0  0  0  0  0  0  0  0  0  0  0
   -6.7981  -16.4827   -8.5341 C   0  0  0  0  0  0  0  0  0  0  0  0
   -3.0587  -17.5058  -12.7709 C   0  0  0  0  0  0  0  0  0  0  0  0
   -7.3950  -17.4493   -7.8645 F   0  0  0  0  0  0  0  0  0  0  0  0
   -7.1311  -15.2952   -8.1193 F   0  0  0  0  0  0  0  0  0  0  0  0
   -3.4339  -16.2208  -12.7062 C   0  0  0  0  0  0  0  0  0  0  0  0
   -3.1847  -18.3247  -11.6252 C   0  0  0  0  0  0  0  0  0  0  0  0
   -5.0550  -17.1840   -7.3330 F   0  0  0  0  0  0  0  0  0  0  0  0
  1  8  2  0
  1 14  1  0
  2  9  1  0
  3  5  1  0
  3  8  1  0
  4 14  1  0
  5  9  1  0
  5 15  1  0
  6  8  1  0
  6 13  2  0
  7 10  1  0
  9 11  1  0
  9 12  1  0
 10 13  1  0
 10 14  2  0
M  END
>  <ID>  (1) 
conformer_0

$$$$
