
     RDKit          3D

 15 16  0  0  0  0  0  0  0  0999 V2000
   -0.2374  -18.5918   -9.6991 C   0  0  0  0  0  0  0  0  0  0  0  0
   -7.3088  -16.0321   -8.4957 C   0  0  0  0  0  0  0  0  0  0  0  0
   -7.2026  -17.2951   -8.9689 C   0  0  0  0  0  0  0  0  0  0  0  0
   -2.9413  -17.3340  -14.4699 O   0  0  0  0  0  0  0  0  0  0  0  0
   -3.7802  -16.9832  -12.1328 S   0  0  0  0  0  0  0  0  0  0  0  0
   -4.9597  -15.7002   -8.7692 C   0  0  0  0  0  0  0  0  0  0  0  0
   -1.4710  -19.0371  -10.2034 O   0  0  0  0  0  0  0  0  0  0  0  0
   -1.8493  -18.3250  -12.5821 C   0  0  0  0  0  0  0  0  0  0  0  0
   -4.8643  -17.0059   -9.2762 C   0  0  0  0  0  0  0  0  0  0  0  0
   -2.0968  -18.3483  -11.1810 C   0  0  0  0  0  0  0  0  0  0  0  0
   -2.8268  -17.5521  -13.1765 C   0  0  0  0  0  0  0  0  0  0  0  0
   -3.6466  -17.4726   -9.6252 O   0  0  0  0  0  0  0  0  0  0  0  0
   -3.2170  -17.5667  -10.8887 C   0  0  0  0  0  0  0  0  0  0  0  0
   -5.9895  -17.8003   -9.4007 C   0  0  0  0  0  0  0  0  0  0  0  0
   -6.2023  -15.2472   -8.3786 C   0  0  0  0  0  0  0  0  0  0  0  0
  1  7  1  0
  2  3  1  0
  2 15  2  0
  3 14  1  0
  4 11  2  0
  5 11  1  0
  5 13  1  0
  6  9  1  0
  6 15  1  0
  7 10  1  0
  8 10  1  0
  8 11  1  0
  9 12  1  0
  9 14  2  0
 10 13  2  0
 12 13  1  0
M  END
>  <ID>  (1) 
conformer_0

$$$$
