
     RDKit          3D

 23 25  0  0  0  0  0  0  0  0999 V2000
   -3.5276  -16.5921  -10.5980 C   0  0  0  0  0  0  0  0  0  0  0  0
   -1.9550  -18.4077  -11.4845 C   0  0  0  0  0  0  0  0  0  0  0  0
   -1.5910  -17.5785   -9.2447 C   0  0  0  0  0  0  0  0  0  0  0  0
   -7.4933  -16.7386   -8.3684 C   0  0  0  0  0  0  0  0  0  0  0  0
   -3.0145  -16.9933  -13.0586 C   0  0  0  0  0  0  0  0  0  0  0  0
   -7.2127  -14.4246   -8.1416 C   0  0  0  0  0  0  0  0  0  0  0  0
   -0.5642  -17.3056   -8.5808 O   0  0  0  0  0  0  0  0  0  0  0  0
   -2.3929  -17.7890  -14.0611 C   0  0  0  0  0  0  0  0  0  0  0  0
   -6.7043  -15.6508   -8.6120 C   0  0  0  0  0  0  0  0  0  0  0  0
   -2.4729  -17.3891  -15.3658 O   0  0  0  0  0  0  0  0  0  0  0  0
   -6.3610  -18.6627   -9.3440 C   0  0  0  0  0  0  0  0  0  0  0  0
   -2.6188  -16.5382   -9.3708 C   0  0  0  0  0  0  0  0  0  0  0  0
   -5.2255  -18.1565   -9.9114 C   0  0  0  0  0  0  0  0  0  0  0  0
   -5.5028  -15.7355   -9.3016 C   0  0  0  0  0  0  0  0  0  0  0  0
   -7.3331  -17.9923   -8.6801 C   0  0  0  0  0  0  0  0  0  0  0  0
   -0.7745  -19.7828   -9.8801 C   0  0  0  0  0  0  0  0  0  0  0  0
   -4.8712  -16.8216   -9.9124 C   0  0  0  0  0  0  0  0  0  0  0  0
   -1.5630  -18.6215  -10.1390 N   0  0  0  0  0  0  0  0  0  0  0  0
   -1.6999  -18.9320  -13.7886 C   0  0  0  0  0  0  0  0  0  0  0  0
   -2.8525  -17.3255  -11.7175 C   0  0  0  0  0  0  0  0  0  0  0  0
   -1.5010  -19.2106  -12.4840 C   0  0  0  0  0  0  0  0  0  0  0  0
   -7.2396  -14.2748   -6.8502 F   0  0  0  0  0  0  0  0  0  0  0  0
   -8.0236  -13.9094   -8.9971 F   0  0  0  0  0  0  0  0  0  0  0  0
  1 12  1  0
  1 17  1  0
  1 20  1  0
  2 18  1  0
  2 20  2  0
  2 21  1  0
  3  7  2  0
  3 12  1  0
  3 18  1  0
  4  9  1  0
  4 15  2  0
  5  8  2  0
  5 20  1  0
  6  9  1  0
  6 22  1  0
  6 23  1  0
  8 10  1  0
  8 19  1  0
  9 14  2  0
 11 13  2  0
 11 15  1  0
 13 17  1  0
 14 17  1  0
 16 18  1  0
 19 21  2  0
M  END
>  <ID>  (1) 
conformer_0

$$$$
