
     RDKit          3D

 11 11  0  0  0  0  0  0  0  0999 V2000
   -3.0204  -18.0555  -13.4898 O   0  0  0  0  0  0  0  0  0  0  0  0
   -3.7617  -16.9641  -11.5442 C   0  0  0  0  0  0  0  0  0  0  0  0
   -7.2100  -17.1346   -8.5088 C   0  0  0  0  0  0  0  0  0  0  0  0
   -7.1672  -14.8952   -8.4888 C   0  0  0  0  0  0  0  0  0  0  0  0
   -5.0133  -17.6986   -9.8289 C   0  0  0  0  0  0  0  0  0  0  0  0
   -4.1775  -15.8946  -10.8185 N   0  0  0  0  0  0  0  0  0  0  0  0
   -4.2385  -18.0801  -10.9065 C   0  0  0  0  0  0  0  0  0  0  0  0
   -3.0347  -16.9801  -12.8447 C   0  0  0  0  0  0  0  0  0  0  0  0
   -2.4805  -15.9071  -13.2344 O   0  0  0  0  0  0  0  0  0  0  0  0
   -6.1348  -15.9475   -8.5362 C   0  0  0  0  0  0  0  0  0  0  0  0
   -5.1400  -16.3863   -9.6629 C   0  0  0  0  0  0  0  0  0  0  0  0
  1  8  2  0
  2  6  1  0
  2  7  1  0
  2  8  1  0
  3 10  1  0
  4 10  1  0
  5  7  1  0
  5 11  2  0
  6 11  1  0
  8  9  1  0
 10 11  1  0
M  END
>  <ID>  (1) 
conformer_0

$$$$
