
     RDKit          3D

 22 24  0  0  0  0  0  0  0  0999 V2000
   -1.9328  -18.3107  -10.6419 C   0  0  0  0  0  0  0  0  0  0  0  0
    0.1026  -19.3411   -9.7329 C   0  0  0  0  0  0  0  0  0  0  0  0
    1.1661  -19.2672   -8.9137 O   0  0  0  0  0  0  0  0  0  0  0  0
   -7.5250  -14.6907   -7.9983 F   0  0  0  0  0  0  0  0  0  0  0  0
   -2.4816  -18.5025  -12.9035 C   0  0  0  0  0  0  0  0  0  0  0  0
   -6.8021  -17.9881   -9.2113 C   0  0  0  0  0  0  0  0  0  0  0  0
   -2.5494  -16.1655   -8.8929 O   0  0  0  0  0  0  0  0  0  0  0  0
   -1.5774  -18.8950  -11.8672 N   0  0  0  0  0  0  0  0  0  0  0  0
   -5.5132  -17.8740   -9.5290 C   0  0  0  0  0  0  0  0  0  0  0  0
   -4.8355  -16.6982   -9.3240 C   0  0  0  0  0  0  0  0  0  0  0  0
   -1.7942  -17.6940  -14.0483 C   0  0  0  0  0  0  0  0  0  0  0  0
   -3.4158  -16.6416   -9.6801 C   0  0  0  0  0  0  0  0  0  0  0  0
   -3.0933  -17.4880  -10.8087 C   0  0  0  0  0  0  0  0  0  0  0  0
   -6.8507  -15.7577   -8.4936 C   0  0  0  0  0  0  0  0  0  0  0  0
   -2.8616  -17.6418  -14.9843 O   0  0  0  0  0  0  0  0  0  0  0  0
   -7.4875  -16.9139   -8.7015 C   0  0  0  0  0  0  0  0  0  0  0  0
   -0.6913  -19.9487  -11.9754 C   0  0  0  0  0  0  0  0  0  0  0  0
   -5.5190  -15.6050   -8.7939 C   0  0  0  0  0  0  0  0  0  0  0  0
   -1.0173  -18.4757   -9.5106 C   0  0  0  0  0  0  0  0  0  0  0  0
   -0.5060  -20.4826  -13.0934 O   0  0  0  0  0  0  0  0  0  0  0  0
    0.0847  -20.2807  -10.7883 C   0  0  0  0  0  0  0  0  0  0  0  0
   -3.4551  -17.5483  -12.2272 C   0  0  0  0  0  0  0  0  0  0  0  0
  1  8  1  0
  1 13  2  0
  1 19  1  0
  2  3  1  0
  2 19  1  0
  2 21  1  0
  4 14  1  0
  5  8  1  0
  5 11  1  0
  5 22  1  0
  6  9  2  0
  6 16  1  0
  7 12  2  0
  8 17  1  0
  9 10  1  0
 10 12  1  0
 10 18  2  0
 11 15  1  0
 12 13  1  0
 13 22  1  0
 14 16  2  0
 14 18  1  0
 17 20  2  0
 17 21  1  0
M  END
>  <ID>  (1) 
conformer_0

$$$$
