
     RDKit          3D

 13 13  0  0  0  0  0  0  0  0999 V2000
   -4.6612  -15.6506   -9.1903 C   0  0  0  0  0  0  0  0  0  0  0  0
   -2.4718  -19.7228  -12.7929 O   0  0  0  0  0  0  0  0  0  0  0  0
   -3.8758  -17.1650  -10.8756 C   0  0  0  0  0  0  0  0  0  0  0  0
   -4.9744  -17.9647  -10.6357 C   0  0  0  0  0  0  0  0  0  0  0  0
   -2.9905  -16.7452  -13.2105 C   0  0  0  0  0  0  0  0  0  0  0  0
   -5.9487  -17.5923   -9.7366 C   0  0  0  0  0  0  0  0  0  0  0  0
   -2.9142  -17.4956  -14.3859 O   0  0  0  0  0  0  0  0  0  0  0  0
   -6.8229  -15.9448   -8.2585 O   0  0  0  0  0  0  0  0  0  0  0  0
   -5.8221  -16.4012   -9.0475 C   0  0  0  0  0  0  0  0  0  0  0  0
   -2.2583  -18.7847  -11.9483 C   0  0  0  0  0  0  0  0  0  0  0  0
   -3.6959  -16.0389  -10.1039 C   0  0  0  0  0  0  0  0  0  0  0  0
   -2.9488  -17.4880  -11.9812 C   0  0  0  0  0  0  0  0  0  0  0  0
   -1.3993  -18.8861  -10.7168 C   0  0  0  0  0  0  0  0  0  0  0  0
  1  9  1  0
  1 11  1  0
  2 10  2  0
  3  4  1  0
  3 11  2  0
  3 12  1  0
  4  6  1  0
  5  7  1  0
  5 12  1  0
  6  9  2  0
  8  9  1  0
 10 12  1  0
 10 13  1  0
M  END
>  <ID>  (1) 
conformer_0

$$$$
