
     RDKit          3D

 25 27  0  0  0  0  0  0  0  0999 V2000
   -2.2045  -17.6425  -15.0001 O   0  0  0  0  0  0  0  0  0  0  0  0
   -0.4524  -19.2351   -9.5039 C   0  0  0  0  0  0  0  0  0  0  0  0
   -7.0071  -17.1896   -9.3648 N   0  0  0  0  0  0  0  0  0  0  0  0
   -1.3926  -19.8934  -11.5923 C   0  0  0  0  0  0  0  0  0  0  0  0
   -2.1540  -18.7663  -11.5891 C   0  0  0  0  0  0  0  0  0  0  0  0
   -6.0665  -15.5690   -7.9589 C   0  0  0  0  0  0  0  0  0  0  0  0
   -2.2493  -16.0338  -13.5019 O   0  0  0  0  0  0  0  0  0  0  0  0
   -7.7164  -14.8734   -9.2959 F   0  0  0  0  0  0  0  0  0  0  0  0
    0.4937  -19.4010   -8.5461 O   0  0  0  0  0  0  0  0  0  0  0  0
   -2.4660  -17.2889  -13.7865 C   0  0  0  0  0  0  0  0  0  0  0  0
   -4.6084  -16.9374   -9.5786 C   0  0  0  0  0  0  0  0  0  0  0  0
   -6.5239  -14.7098   -6.9974 F   0  0  0  0  0  0  0  0  0  0  0  0
   -4.9076  -15.7281   -8.8057 C   0  0  0  0  0  0  0  0  0  0  0  0
    0.2456  -21.2475  -10.4779 O   0  0  0  0  0  0  0  0  0  0  0  0
   -5.7674  -17.7272   -9.6602 C   0  0  0  0  0  0  0  0  0  0  0  0
   -3.0448  -15.7642  -10.7179 O   0  0  0  0  0  0  0  0  0  0  0  0
   -3.0111  -18.2419  -12.7770 C   0  0  0  0  0  0  0  0  0  0  0  0
   -3.2926  -19.4692  -13.4727 O   0  0  0  0  0  0  0  0  0  0  0  0
   -4.0682  -17.4911  -11.9017 O   0  0  0  0  0  0  0  0  0  0  0  0
   -1.3677  -18.1431   -9.4490 C   0  0  0  0  0  0  0  0  0  0  0  0
   -3.5064  -17.0207  -10.5939 C   0  0  0  0  0  0  0  0  0  0  0  0
   -0.5310  -20.1423  -10.5441 C   0  0  0  0  0  0  0  0  0  0  0  0
   -8.3190  -16.2753   -7.7733 F   0  0  0  0  0  0  0  0  0  0  0  0
   -7.3184  -16.0124   -8.6565 C   0  0  0  0  0  0  0  0  0  0  0  0
   -2.2907  -17.9848  -10.4499 C   0  0  0  0  0  0  0  0  0  0  0  0
  1 10  2  0
  2  9  1  0
  2 20  2  0
  2 22  1  0
  3 15  1  0
  3 24  1  0
  4  5  1  0
  4 22  2  0
  5 17  1  0
  5 25  1  0
  6 12  1  0
  6 13  1  0
  6 24  1  0
  7 10  1  0
  8 24  1  0
 10 17  1  0
 11 13  1  0
 11 15  1  0
 11 21  1  0
 14 22  1  0
 16 21  1  0
 17 18  1  0
 17 19  1  0
 19 21  1  0
 20 25  1  0
 21 25  1  0
 23 24  1  0
M  END
>  <ID>  (1) 
conformer_0

$$$$
