
     RDKit          3D

 19 20  0  0  0  0  0  0  0  0999 V2000
   -1.5393  -17.4637   -8.6345 C   0  0  0  0  0  0  0  0  0  0  0  0
   -2.2376  -17.6619  -13.8923 C   0  0  0  0  0  0  0  0  0  0  0  0
   -2.5098  -15.4088  -13.4195 O   0  0  0  0  0  0  0  0  0  0  0  0
   -2.8427  -17.5654  -10.5379 C   0  0  0  0  0  0  0  0  0  0  0  0
   -2.7350  -17.7051  -15.0714 O   0  0  0  0  0  0  0  0  0  0  0  0
   -7.5856  -16.9305   -8.6790 C   0  0  0  0  0  0  0  0  0  0  0  0
   -2.7121  -16.9520   -8.2784 C   0  0  0  0  0  0  0  0  0  0  0  0
   -3.5417  -18.5105  -11.3107 C   0  0  0  0  0  0  0  0  0  0  0  0
   -5.5040  -15.7555   -8.8465 C   0  0  0  0  0  0  0  0  0  0  0  0
   -6.8579  -15.8065   -8.5628 C   0  0  0  0  0  0  0  0  0  0  0  0
   -2.8568  -16.6714  -12.9778 C   0  0  0  0  0  0  0  0  0  0  0  0
   -4.9036  -16.9632   -9.2216 C   0  0  0  0  0  0  0  0  0  0  0  0
   -5.6850  -18.0997   -9.4368 C   0  0  0  0  0  0  0  0  0  0  0  0
   -1.5885  -17.8783   -9.8866 N   0  0  0  0  0  0  0  0  0  0  0  0
   -7.5845  -14.5958   -8.1201 C   0  0  0  0  0  0  0  0  0  0  0  0
   -3.5372  -17.0800   -9.3554 N   0  0  0  0  0  0  0  0  0  0  0  0
   -1.1857  -18.2672  -13.5168 O   0  0  0  0  0  0  0  0  0  0  0  0
   -7.0106  -18.0722   -9.1427 C   0  0  0  0  0  0  0  0  0  0  0  0
   -2.6633  -16.7819  -11.6168 N   0  0  0  0  0  0  0  0  0  0  0  0
  1  7  1  0
  1 14  1  0
  2  5  2  0
  2 11  1  0
  2 17  1  0
  3 11  1  0
  4  8  1  0
  4 14  1  0
  4 16  1  0
  4 19  1  0
  6 10  2  0
  6 18  1  0
  7 16  1  0
  9 10  1  0
  9 12  2  0
 10 15  1  0
 11 19  1  0
 12 13  1  0
 12 16  1  0
 13 18  2  0
M  END
>  <ID>  (1) 
conformer_0

$$$$
