
     RDKit          3D

 28 32  0  0  0  0  0  0  0  0999 V2000
   -6.5113  -14.7217   -8.0715 C   0  0  0  0  0  0  0  0  0  0  0  0
   -6.4612  -18.0050   -9.5547 C   0  0  0  0  0  0  0  0  0  0  0  0
   -0.6777  -18.6282   -9.9337 C   0  0  0  0  0  0  0  0  0  0  0  0
   -7.8010  -15.1283   -8.0186 C   0  0  0  0  0  0  0  0  0  0  0  0
   -5.3246  -18.6096  -10.0656 C   0  0  0  0  0  0  0  0  0  0  0  0
   -6.6816  -16.8358   -8.9853 C   0  0  0  0  0  0  0  0  0  0  0  0
   -1.8160  -17.8601   -9.9482 N   0  0  0  0  0  0  0  0  0  0  0  0
   -2.9190  -18.4293  -10.8099 C   0  0  0  0  0  0  0  0  0  0  0  0
   -2.3671  -16.7866   -9.2397 C   0  0  0  0  0  0  0  0  0  0  0  0
   -8.7493  -14.3705   -7.3946 F   0  0  0  0  0  0  0  0  0  0  0  0
   -2.4357  -17.7477  -13.3086 C   0  0  0  0  0  0  0  0  0  0  0  0
   -2.0618  -20.2073  -12.2339 C   0  0  0  0  0  0  0  0  0  0  0  0
   -3.0084  -16.6579  -13.1359 O   0  0  0  0  0  0  0  0  0  0  0  0
   -7.9677  -16.4050   -8.5883 O   0  0  0  0  0  0  0  0  0  0  0  0
   -1.8299  -22.9149  -12.1665 C   0  0  0  0  0  0  0  0  0  0  0  0
   -0.6632  -19.6687   -8.8284 O   0  0  0  0  0  0  0  0  0  0  0  0
   -1.7554  -15.9267   -8.6261 O   0  0  0  0  0  0  0  0  0  0  0  0
   -1.2392  -22.2130  -11.1702 C   0  0  0  0  0  0  0  0  0  0  0  0
   -4.5533  -15.8675   -8.8399 C   0  0  0  0  0  0  0  0  0  0  0  0
   -1.3447  -20.8262  -11.1910 C   0  0  0  0  0  0  0  0  0  0  0  0
   -2.0396  -18.0758  -14.4370 O   0  0  0  0  0  0  0  0  0  0  0  0
   -3.8145  -16.8704   -9.3504 C   0  0  0  0  0  0  0  0  0  0  0  0
   -2.6157  -20.9718  -13.1840 C   0  0  0  0  0  0  0  0  0  0  0  0
   -0.7207  -20.0318  -10.1295 C   0  0  0  0  0  0  0  0  0  0  0  0
   -2.5073  -22.3323  -13.1804 N   0  0  0  0  0  0  0  0  0  0  0  0
   -5.8767  -15.7844   -8.6318 C   0  0  0  0  0  0  0  0  0  0  0  0
   -4.0849  -17.9826  -10.0698 C   0  0  0  0  0  0  0  0  0  0  0  0
   -2.2650  -18.6956  -12.1429 C   0  0  0  0  0  0  0  0  0  0  0  0
  1  4  1  0
  1 26  1  0
  2  5  1  0
  2  6  2  0
  3  7  1  0
  3 24  1  0
  4 10  1  0
  4 14  1  0
  5 27  2  0
  6 14  1  0
  6 26  1  0
  7  8  1  0
  7  9  1  0
  8 27  1  0
  8 28  1  0
  9 17  2  0
  9 22  1  0
 11 13  2  0
 11 21  1  0
 11 28  1  0
 12 20  2  0
 12 23  1  0
 12 28  1  0
 15 18  2  0
 15 25  1  0
 16 24  1  0
 18 20  1  0
 19 22  1  0
 19 26  2  0
 20 24  1  0
 22 27  1  0
 23 25  2  0
M  END
>  <ID>  (1) 
conformer_0

$$$$
