
     RDKit          3D

 21 23  0  0  0  0  0  0  0  0999 V2000
   -5.2976  -16.8425   -9.5785 C   0  0  0  0  0  0  0  0  0  0  0  0
   -0.6374  -20.6139  -10.6844 O   0  0  0  0  0  0  0  0  0  0  0  0
   -6.9969  -18.5254   -9.1042 F   0  0  0  0  0  0  0  0  0  0  0  0
   -5.1123  -15.5609   -9.0989 C   0  0  0  0  0  0  0  0  0  0  0  0
   -3.0965  -15.7553  -12.9581 O   0  0  0  0  0  0  0  0  0  0  0  0
   -2.5452  -17.7671  -11.9350 C   0  0  0  0  0  0  0  0  0  0  0  0
   -0.3900  -18.8479   -8.4053 C   0  0  0  0  0  0  0  0  0  0  0  0
   -6.3192  -15.2138   -8.4182 C   0  0  0  0  0  0  0  0  0  0  0  0
   -1.6499  -18.8530  -11.9882 C   0  0  0  0  0  0  0  0  0  0  0  0
   -2.6646  -17.0311  -13.0858 C   0  0  0  0  0  0  0  0  0  0  0  0
   -1.1938  -19.3877  -10.7315 N   0  0  0  0  0  0  0  0  0  0  0  0
   -8.4574  -16.2086   -8.1918 F   0  0  0  0  0  0  0  0  0  0  0  0
   -2.2479  -17.4854  -14.3447 C   0  0  0  0  0  0  0  0  0  0  0  0
   -3.1251  -17.5480  -10.6596 C   0  0  0  0  0  0  0  0  0  0  0  0
   -7.1551  -16.2524   -8.5343 C   0  0  0  0  0  0  0  0  0  0  0  0
   -2.3788  -17.7831   -9.5115 C   0  0  0  0  0  0  0  0  0  0  0  0
   -1.5839  -18.6917  -14.3893 C   0  0  0  0  0  0  0  0  0  0  0  0
   -1.2759  -19.3475  -13.2385 C   0  0  0  0  0  0  0  0  0  0  0  0
   -4.5101  -17.3940  -10.4931 C   0  0  0  0  0  0  0  0  0  0  0  0
   -1.3600  -18.6890   -9.5391 C   0  0  0  0  0  0  0  0  0  0  0  0
   -6.5209  -17.2633   -9.1219 C   0  0  0  0  0  0  0  0  0  0  0  0
  1  4  1  0
  1 19  1  0
  1 21  1  0
  2 11  1  0
  3 21  1  0
  4  8  1  0
  5 10  1  0
  6  9  1  0
  6 10  1  0
  6 14  1  0
  7 20  1  0
  8 15  1  0
  9 11  1  0
  9 18  1  0
 10 13  2  0
 11 20  1  0
 12 15  1  0
 13 17  1  0
 14 16  1  0
 14 19  1  0
 15 21  1  0
 16 20  2  0
 17 18  2  0
M  END
>  <ID>  (1) 
conformer_0

$$$$
