
     RDKit          3D

 21 24  0  0  0  0  0  0  0  0999 V2000
   -1.8832  -20.3493  -12.0393 C   0  0  0  0  0  0  0  0  0  0  0  0
   -2.7068  -18.7940  -13.5756 C   0  0  0  0  0  0  0  0  0  0  0  0
   -3.4112  -16.9605  -10.2964 C   0  0  0  0  0  0  0  0  0  0  0  0
   -6.7278  -17.8476   -8.6790 C   0  0  0  0  0  0  0  0  0  0  0  0
   -3.8638  -16.0417  -12.4503 O   0  0  0  0  0  0  0  0  0  0  0  0
   -2.3889  -17.9404  -14.5321 O   0  0  0  0  0  0  0  0  0  0  0  0
   -5.1609  -15.9962   -8.9036 C   0  0  0  0  0  0  0  0  0  0  0  0
   -4.0317  -15.6766   -9.8002 C   0  0  0  0  0  0  0  0  0  0  0  0
   -1.6309  -18.6042  -10.2791 C   0  0  0  0  0  0  0  0  0  0  0  0
   -1.6825  -16.4806  -12.0813 O   0  0  0  0  0  0  0  0  0  0  0  0
   -4.3445  -18.0676   -9.7618 C   0  0  0  0  0  0  0  0  0  0  0  0
   -2.9942  -16.8831  -11.8165 C   0  0  0  0  0  0  0  0  0  0  0  0
   -2.6061  -19.3041  -11.2626 C   0  0  0  0  0  0  0  0  0  0  0  0
   -5.3183  -17.4793   -8.8194 C   0  0  0  0  0  0  0  0  0  0  0  0
   -1.9892  -17.2149   -8.3846 O   0  0  0  0  0  0  0  0  0  0  0  0
   -3.1598  -18.3352  -12.2848 C   0  0  0  0  0  0  0  0  0  0  0  0
   -7.6060  -15.6393   -8.2939 C   0  0  0  0  0  0  0  0  0  0  0  0
   -6.2212  -15.1405   -8.5085 C   0  0  0  0  0  0  0  0  0  0  0  0
   -2.0470  -17.2600   -9.7574 C   0  0  0  0  0  0  0  0  0  0  0  0
   -7.4708  -17.0261   -7.6501 C   0  0  0  0  0  0  0  0  0  0  0  0
   -2.2218  -20.0235  -13.4435 O   0  0  0  0  0  0  0  0  0  0  0  0
  1 13  1  0
  1 21  1  0
  2  6  2  0
  2 16  1  0
  2 21  1  0
  3  8  1  0
  3 11  1  0
  3 12  1  0
  3 19  1  0
  4 14  1  0
  4 20  1  0
  5 12  1  0
  7  8  1  0
  7 14  1  0
  7 18  1  0
  9 13  1  0
  9 19  1  0
 10 12  1  0
 11 14  1  0
 12 16  1  0
 13 16  1  0
 15 19  1  0
 17 18  1  0
 17 20  1  0
M  END
>  <ID>  (1) 
conformer_0

$$$$
