
     RDKit          3D

 20 22  0  0  0  0  0  0  0  0999 V2000
   -2.6513  -18.3849  -12.5815 C   0  0  0  0  0  0  0  0  0  0  0  0
   -3.4732  -17.6305  -11.7791 C   0  0  0  0  0  0  0  0  0  0  0  0
   -1.6444  -18.6373   -9.7081 N   0  0  0  0  0  0  0  0  0  0  0  0
   -5.1147  -17.4626   -9.6834 C   0  0  0  0  0  0  0  0  0  0  0  0
   -2.3772  -16.8651   -8.7430 C   0  0  0  0  0  0  0  0  0  0  0  0
   -0.6243  -18.1012   -9.0086 C   0  0  0  0  0  0  0  0  0  0  0  0
   -7.4402  -17.5103   -8.9590 C   0  0  0  0  0  0  0  0  0  0  0  0
   -2.3453  -16.4207  -14.0058 C   0  0  0  0  0  0  0  0  0  0  0  0
   -7.0520  -15.2015   -8.3930 C   0  0  0  0  0  0  0  0  0  0  0  0
   -1.1018  -18.3140  -14.3615 O   0  0  0  0  0  0  0  0  0  0  0  0
   -7.8650  -16.3146   -8.5270 C   0  0  0  0  0  0  0  0  0  0  0  0
   -5.7238  -15.2496   -8.7489 C   0  0  0  0  0  0  0  0  0  0  0  0
   -2.6955  -17.8870   -9.5434 C   0  0  0  0  0  0  0  0  0  0  0  0
   -1.0763  -17.0216   -8.3801 N   0  0  0  0  0  0  0  0  0  0  0  0
   -3.2278  -15.7782  -13.2210 C   0  0  0  0  0  0  0  0  0  0  0  0
   -6.3583  -18.0620   -9.4713 C   0  0  0  0  0  0  0  0  0  0  0  0
   -3.9398  -18.1686  -10.3512 C   0  0  0  0  0  0  0  0  0  0  0  0
   -3.7867  -16.3595  -12.1072 C   0  0  0  0  0  0  0  0  0  0  0  0
   -2.0376  -17.7174  -13.6794 C   0  0  0  0  0  0  0  0  0  0  0  0
   -4.9781  -16.1516   -9.2310 C   0  0  0  0  0  0  0  0  0  0  0  0
  1  2  2  0
  1 19  1  0
  2 17  1  0
  2 18  1  0
  3  6  1  0
  3 13  1  0
  4 16  1  0
  4 17  1  0
  4 20  1  0
  5 13  1  0
  5 14  1  0
  6 14  1  0
  7 11  1  0
  7 16  2  0
  8 15  1  0
  8 19  2  0
  9 11  2  0
  9 12  1  0
 10 19  1  0
 12 20  2  0
 13 17  1  0
 15 18  2  0
M  END
>  <ID>  (1) 
conformer_0

$$$$
