
     RDKit          3D

 19 20  0  0  0  0  0  0  0  0999 V2000
   -1.5113  -18.9236  -11.8103 C   0  0  0  0  0  0  0  0  0  0  0  0
   -2.2144  -18.0480  -10.8839 C   0  0  0  0  0  0  0  0  0  0  0  0
   -2.0302  -18.5829  -13.1691 C   0  0  0  0  0  0  0  0  0  0  0  0
   -3.4318  -17.4617  -11.0686 C   0  0  0  0  0  0  0  0  0  0  0  0
   -2.2634  -15.9486  -13.3096 O   0  0  0  0  0  0  0  0  0  0  0  0
   -7.5951  -16.1327   -8.5492 C   0  0  0  0  0  0  0  0  0  0  0  0
   -2.8489  -17.1843  -13.4353 C   0  0  0  0  0  0  0  0  0  0  0  0
   -4.0076  -17.2041  -12.2909 O   0  0  0  0  0  0  0  0  0  0  0  0
   -1.2944  -20.3845  -11.5419 C   0  0  0  0  0  0  0  0  0  0  0  0
   -6.7261  -15.2891   -8.7352 C   0  0  0  0  0  0  0  0  0  0  0  0
   -3.2775  -17.3231  -14.8083 N   0  0  0  0  0  0  0  0  0  0  0  0
   -2.8841  -17.0826   -8.8970 C   0  0  0  0  0  0  0  0  0  0  0  0
   -5.2037  -17.0654   -9.5187 C   0  0  0  0  0  0  0  0  0  0  0  0
   -3.9508  -17.0443   -9.8414 C   0  0  0  0  0  0  0  0  0  0  0  0
   -6.1520  -17.8604   -9.2628 C   0  0  0  0  0  0  0  0  0  0  0  0
   -2.4036  -21.3449  -12.0952 C   0  0  0  0  0  0  0  0  0  0  0  0
   -1.8631  -17.7737   -9.5612 C   0  0  0  0  0  0  0  0  0  0  0  0
   -0.7493  -18.1681   -8.9954 F   0  0  0  0  0  0  0  0  0  0  0  0
   -7.3494  -17.4723   -8.7365 C   0  0  0  0  0  0  0  0  0  0  0  0
  1  2  1  0
  1  3  1  0
  1  9  1  0
  2  4  1  0
  2 17  2  0
  3  7  1  0
  4  8  1  0
  4 14  1  0
  5  7  1  0
  6 10  2  0
  6 19  1  0
  7  8  1  0
  7 11  1  0
  9 16  1  0
 12 14  1  0
 12 17  1  0
 13 14  1  0
 13 15  2  3
 15 19  1  0
 17 18  1  0
M  END
>  <ID>  (1) 
conformer_0

$$$$
