
     RDKit          3D

 22 24  0  0  0  0  0  0  0  0999 V2000
   -3.8053  -16.4486  -11.5158 C   0  0  0  0  0  0  0  0  0  0  0  0
   -7.3220  -17.0692   -8.7047 C   0  0  0  0  0  0  0  0  0  0  0  0
   -5.9456  -15.1393   -8.8438 C   0  0  0  0  0  0  0  0  0  0  0  0
   -6.5087  -17.9102   -9.3542 C   0  0  0  0  0  0  0  0  0  0  0  0
   -0.9427  -18.6680   -9.0016 C   0  0  0  0  0  0  0  0  0  0  0  0
   -1.6969  -18.9548  -13.0589 O   0  0  0  0  0  0  0  0  0  0  0  0
   -7.9516  -15.0774   -7.7683 F   0  0  0  0  0  0  0  0  0  0  0  0
   -1.3433  -19.0453  -11.7323 C   0  0  0  0  0  0  0  0  0  0  0  0
   -5.4173  -17.7466  -10.1285 C   0  0  0  0  0  0  0  0  0  0  0  0
   -0.4843  -19.8031  -10.9523 C   0  0  0  0  0  0  0  0  0  0  0  0
   -0.3056  -19.6212   -9.7244 C   0  0  0  0  0  0  0  0  0  0  0  0
   -2.8227  -17.2935  -14.4163 C   0  0  0  0  0  0  0  0  0  0  0  0
    0.3494  -20.3928  -10.0989 O   0  0  0  0  0  0  0  0  0  0  0  0
   -2.1593  -17.8630  -15.5207 O   0  0  0  0  0  0  0  0  0  0  0  0
   -4.9551  -15.4581   -9.6250 C   0  0  0  0  0  0  0  0  0  0  0  0
   -2.5399  -17.8894  -13.1696 C   0  0  0  0  0  0  0  0  0  0  0  0
   -2.0673  -18.1067  -11.0570 C   0  0  0  0  0  0  0  0  0  0  0  0
   -7.0693  -15.7794   -8.4778 C   0  0  0  0  0  0  0  0  0  0  0  0
   -3.8001  -15.3731  -12.1659 O   0  0  0  0  0  0  0  0  0  0  0  0
   -1.8772  -17.8590   -9.6871 C   0  0  0  0  0  0  0  0  0  0  0  0
   -4.7447  -16.5772  -10.4027 C   0  0  0  0  0  0  0  0  0  0  0  0
   -2.9029  -17.4707  -11.9286 N   0  0  0  0  0  0  0  0  0  0  0  0
  1 19  2  0
  1 21  1  0
  1 22  1  0
  2  4  1  0
  2 18  2  0
  3 15  2  0
  3 18  1  0
  4  9  2  0
  5 11  1  0
  5 20  2  0
  6  8  1  0
  6 16  1  0
  7 18  1  0
  8 10  2  0
  8 17  1  0
  9 21  1  0
 10 11  1  0
 11 13  2  0
 12 14  1  0
 12 16  2  3
 15 21  1  0
 16 22  1  0
 17 20  1  0
 17 22  1  0
M  END
>  <ID>  (1) 
conformer_0

$$$$
