
     RDKit          3D

 21 21  0  0  0  0  0  0  0  0999 V2000
   -5.5456  -15.3163   -8.6577 C   0  0  0  0  0  0  0  0  0  0  0  0
   -2.0021  -18.3107  -13.1170 C   0  0  0  0  0  0  0  0  0  0  0  0
   -1.2768  -22.2655  -10.6124 O   0  0  0  0  0  1  0  0  0  0  0  0
   -0.6198  -19.9995  -11.1484 O   0  0  0  0  0  0  0  0  0  0  0  0
   -2.8045  -18.8823  -12.0641 C   0  0  0  0  0  0  0  0  0  0  0  0
   -4.3679  -15.7956   -9.1649 C   0  0  0  0  0  0  0  0  0  0  0  0
   -6.6207  -17.3959   -9.1420 C   0  0  0  0  0  0  0  0  0  0  0  0
   -2.5290  -17.1878  -13.8272 C   0  0  0  0  0  0  0  0  0  0  0  0
   -5.4135  -17.9010   -9.6444 C   0  0  0  0  0  0  0  0  0  0  0  0
   -4.2806  -17.1236   -9.5720 C   0  0  0  0  0  0  0  0  0  0  0  0
    1.0808  -21.6002  -10.6012 O   0  0  0  0  0  1  0  0  0  0  0  0
   -0.5751  -18.5419  -13.1539 C   0  0  0  0  0  0  0  0  0  0  0  0
   -2.6229  -17.4450  -15.1362 O   0  0  0  0  0  0  0  0  0  0  0  0
   -2.7098  -17.7138  -11.2823 N   0  0  0  0  0  0  0  0  0  0  0  0
   -0.2412  -21.3811  -10.6750 P   0  0  0  0  0  0  0  0  0  0  0  0
   -2.7053  -16.0477  -13.3080 O   0  0  0  0  0  0  0  0  0  0  0  0
   -2.0095  -17.6902   -9.1698 O   0  0  0  0  0  0  0  0  0  0  0  0
   -6.6651  -16.1172   -8.6603 C   0  0  0  0  0  0  0  0  0  0  0  0
   -7.9054  -15.5200   -8.1570 Cl  0  0  0  0  0  0  0  0  0  0  0  0
   -2.9767  -17.6404   -9.9381 C   0  0  0  0  0  0  0  0  0  0  0  0
   -0.2354  -19.8677  -12.5741 C   0  0  0  0  0  0  0  0  0  0  0  0
  1  6  2  0
  1 18  1  0
  2  5  1  0
  2  8  1  0
  2 12  1  0
  3 15  1  0
  4 15  1  0
  4 21  1  0
  5 14  1  0
  6 10  1  0
  7  9  1  0
  7 18  2  0
  8 13  2  0
  8 16  1  0
  9 10  2  0
 10 20  1  0
 11 15  1  0
 12 21  1  0
 14 20  1  0
 17 20  2  0
 18 19  1  0
M  END
>  <ID>  (1) 
conformer_0

$$$$
