
     RDKit          3D

 12 11  0  0  0  0  0  0  0  0999 V2000
   -6.1239  -17.1849   -8.7046 C   0  0  0  0  0  0  0  0  0  0  0  0
   -4.0133  -15.9852   -9.4658 C   0  0  0  0  0  0  0  0  0  0  0  0
   -7.4249  -16.4205   -8.7752 C   0  0  0  0  0  0  0  0  0  0  0  0
   -2.6391  -16.5008  -12.8040 C   0  0  0  0  0  0  0  0  0  0  0  0
   -7.1720  -15.0181   -8.4298 O   0  0  0  0  0  0  0  0  0  0  0  0
   -2.6458  -17.7802  -13.6041 C   0  0  0  0  0  0  0  0  0  0  0  0
   -2.7540  -17.6598  -14.8801 O   0  0  0  0  0  0  0  0  0  0  0  0
   -3.8443  -16.2541  -11.9287 C   0  0  0  0  0  0  0  0  0  0  0  0
   -2.3741  -18.8835  -12.9850 O   0  0  0  0  0  0  0  0  0  0  0  0
   -3.4910  -15.4242  -10.7430 O   0  0  0  0  0  0  0  0  0  0  0  0
   -2.7945  -16.7456   -8.9162 C   0  0  0  0  0  0  0  0  0  0  0  0
   -5.2072  -16.8365   -9.7916 C   0  0  0  0  0  0  0  0  0  0  0  0
  1  3  1  0
  1 12  1  0
  2 10  1  0
  2 11  1  0
  2 12  1  0
  3  5  1  0
  4  6  1  0
  4  8  1  0
  6  7  2  0
  6  9  1  0
  8 10  1  0
M  END
>  <ID>  (1) 
conformer_0

$$$$
