
     RDKit          3D

 21 22  0  0  0  0  0  0  0  0999 V2000
   -2.4207  -18.3256  -13.8870 C   0  0  0  0  0  0  0  0  0  0  0  0
   -0.3532  -18.4645  -15.0515 O   0  0  0  0  0  0  0  0  0  0  0  0
   -2.2540  -19.2127  -11.5327 C   0  0  0  0  0  0  0  0  0  0  0  0
   -0.9821  -19.0576   -9.5599 C   0  0  0  0  0  0  0  0  0  0  0  0
   -7.8096  -16.1040   -8.7194 C   0  0  0  0  0  0  0  0  0  0  0  0
   -2.7285  -16.9141  -14.0286 O   0  0  0  0  0  0  0  0  0  0  0  0
   -7.3995  -14.7820   -8.4235 C   0  0  0  0  0  0  0  0  0  0  0  0
   -3.1377  -18.6865  -12.5984 C   0  0  0  0  0  0  0  0  0  0  0  0
   -0.6668  -20.3896  -10.2788 C   0  0  0  0  0  0  0  0  0  0  0  0
   -3.1383  -16.6777   -9.2007 C   0  0  0  0  0  0  0  0  0  0  0  0
   -3.3630  -17.8572   -9.8985 C   0  0  0  0  0  0  0  0  0  0  0  0
   -0.9011  -18.3173  -13.7829 C   0  0  0  0  0  0  0  0  0  0  0  0
   -6.5243  -15.6543   -8.3349 O   0  0  0  0  0  0  0  0  0  0  0  0
   -1.8874  -16.3199   -8.9889 O   0  0  0  0  0  0  0  0  0  0  0  0
   -5.4731  -16.3337   -8.9468 C   0  0  0  0  0  0  0  0  0  0  0  0
   -2.1965  -18.6097  -10.1891 N   0  0  0  0  0  0  0  0  0  0  0  0
   -4.1928  -15.8932   -8.7090 C   0  0  0  0  0  0  0  0  0  0  0  0
   -5.7015  -17.4548   -9.7011 C   0  0  0  0  0  0  0  0  0  0  0  0
   -1.0814  -20.0958  -11.7374 C   0  0  0  0  0  0  0  0  0  0  0  0
   -4.6181  -18.2104  -10.1926 C   0  0  0  0  0  0  0  0  0  0  0  0
   -1.1254  -20.8674  -12.8162 O   0  0  0  0  0  0  0  0  0  0  0  0
  1  6  1  0
  1  8  1  0
  1 12  1  0
  2 12  1  0
  3  8  1  0
  3 16  1  0
  3 19  1  0
  4  9  1  0
  4 16  1  0
  5  7  1  0
  7 13  1  0
  9 19  1  0
 10 11  2  0
 10 14  1  0
 10 17  1  0
 11 16  1  0
 11 20  1  0
 13 15  1  0
 15 17  2  0
 15 18  1  0
 18 20  2  0
 19 21  1  0
M  END
>  <ID>  (1) 
conformer_0

$$$$
