
     RDKit          3D

 31 34  0  0  0  0  0  0  0  0999 V2000
   -2.4939  -18.3052  -11.3090 C   0  0  0  0  0  0  0  0  0  0  0  0
   -7.7541  -16.1316   -8.4977 C   0  0  0  0  0  0  0  0  0  0  0  0
   -2.8554  -17.1264  -10.9958 C   0  0  0  0  0  0  0  0  0  0  0  0
   -2.5164  -17.6961  -15.1381 O   0  0  0  0  0  0  0  0  0  0  0  0
   -2.4556  -21.6290  -13.0493 C   0  0  0  0  0  0  0  0  0  0  0  0
   -0.5726  -19.8655   -7.8418 O   0  0  0  0  0  0  0  0  0  0  0  0
   -2.2610  -18.8519  -13.2138 C   0  0  0  0  0  0  0  0  0  0  0  0
   -2.8769  -16.8680   -9.6295 N   0  0  0  0  0  0  0  0  0  0  0  0
   -1.3080  -21.4619  -12.1919 C   0  0  0  0  0  0  0  0  0  0  0  0
   -3.0987  -16.1796  -11.9533 C   0  0  0  0  0  0  0  0  0  0  0  0
   -5.7514  -17.3150   -9.1150 C   0  0  0  0  0  0  0  0  0  0  0  0
   -5.0631  -16.1226   -8.9697 C   0  0  0  0  0  0  0  0  0  0  0  0
   -2.3822  -22.8380  -13.8059 N   0  0  0  0  0  0  0  0  0  0  0  0
   -0.7531  -17.8979   -9.4437 O   0  0  0  0  0  0  0  0  0  0  0  0
   -1.0207  -23.8416  -12.1301 C   0  0  0  0  0  0  0  0  0  0  0  0
   -2.0755  -19.2179  -11.9932 C   0  0  0  0  0  0  0  0  0  0  0  0
   -3.6465  -15.8825   -9.1155 C   0  0  0  0  0  0  0  0  0  0  0  0
   -1.8703  -17.3372   -8.8312 C   0  0  0  0  0  0  0  0  0  0  0  0
   -2.5744  -17.7108  -13.7943 C   0  0  0  0  0  0  0  0  0  0  0  0
   -1.2241  -23.5789  -13.5172 N   0  0  0  0  0  0  0  0  0  0  0  0
   -7.1414  -17.3230   -8.8808 C   0  0  0  0  0  0  0  0  0  0  0  0
   -2.9465  -16.5116  -13.2482 C   0  0  0  0  0  0  0  0  0  0  0  0
    0.6900  -20.8018  -10.1972 O   0  0  0  0  0  0  0  0  0  0  0  0
   -0.5451  -19.2077   -9.0762 C   0  0  0  0  0  0  0  0  0  0  0  0
   -9.0582  -16.0524   -8.2123 F   0  0  0  0  0  0  0  0  0  0  0  0
   -0.8651  -22.6314  -11.4214 C   0  0  0  0  0  0  0  0  0  0  0  0
   -1.3905  -20.3078  -11.3476 C   0  0  0  0  0  0  0  0  0  0  0  0
   -7.0638  -14.9936   -8.4320 C   0  0  0  0  0  0  0  0  0  0  0  0
   -0.5941  -20.2197  -10.1966 C   0  0  0  0  0  0  0  0  0  0  0  0
   -5.7394  -14.9586   -8.6643 C   0  0  0  0  0  0  0  0  0  0  0  0
   -3.1282  -14.7692   -8.9345 O   0  0  0  0  0  0  0  0  0  0  0  0
  1  3  2  0
  1 16  2  0
  2 21  2  0
  2 25  1  0
  2 28  1  0
  3  8  1  0
  3 10  1  0
  4 19  1  0
  5  9  1  0
  5 13  1  0
  6 24  2  0
  7 16  1  0
  7 19  2  0
  8 17  1  0
  8 18  1  0
  9 26  1  0
  9 27  1  0
 10 22  2  0
 11 12  2  0
 11 21  1  0
 12 17  1  0
 12 30  1  0
 13 20  1  0
 14 18  1  0
 14 24  1  0
 15 20  1  0
 15 26  1  0
 16 27  1  0
 17 31  2  0
 19 22  1  0
 23 29  1  0
 24 29  1  0
 27 29  1  0
 28 30  2  0
M  END
>  <ID>  (1) 
conformer_0

$$$$
