
     RDKit          3D

  9  9  0  0  0  0  0  0  0  0999 V2000
   -3.1535  -17.3654  -13.1436 C   0  0  0  0  0  0  0  0  0  0  0  0
   -5.9809  -17.4595   -9.5886 C   0  0  0  0  0  0  0  0  0  0  0  0
   -5.0174  -17.7984  -10.6172 C   0  0  0  0  0  0  0  0  0  0  0  0
   -6.6344  -15.4303   -8.2695 C   0  0  0  0  0  0  0  0  0  0  0  0
   -2.6632  -17.5454  -14.1902 O   0  0  0  0  0  0  0  0  0  0  0  0
   -4.0779  -16.8612  -10.8304 C   0  0  0  0  0  0  0  0  0  0  0  0
   -5.7306  -16.1899   -9.1003 C   0  0  0  0  0  0  0  0  0  0  0  0
   -4.4284  -15.6758   -9.7104 O   0  0  0  0  0  0  0  0  0  0  0  0
   -3.0528  -16.9241  -11.8288 C   0  0  0  0  0  0  0  0  0  0  0  0
  1  5  2  0
  1  9  1  0
  2  3  1  0
  2  7  1  0
  3  6  1  0
  4  7  1  0
  6  8  1  0
  6  9  1  0
  7  8  1  0
M  END
>  <ID>  (1) 
conformer_0

$$$$
