
     RDKit          3D

 11 11  0  0  0  0  0  0  0  0999 V2000
   -6.9404  -16.9851   -9.0143 S   0  0  0  0  0  0  0  0  0  0  0  0
   -2.5974  -17.2096  -10.3678 C   0  0  0  0  0  0  0  0  0  0  0  0
   -4.3629  -16.6366   -8.8506 C   0  0  0  0  0  0  0  0  0  0  0  0
   -5.3518  -16.9851   -9.7346 C   0  0  0  0  0  0  0  0  0  0  0  0
   -3.2939  -17.1099  -13.7520 O   0  0  0  0  0  0  0  0  0  0  0  0
   -3.5200  -17.4582  -11.4010 C   0  0  0  0  0  0  0  0  0  0  0  0
   -4.8767  -17.3822  -11.0851 C   0  0  0  0  0  0  0  0  0  0  0  0
   -3.0306  -16.7858   -9.1224 C   0  0  0  0  0  0  0  0  0  0  0  0
   -2.0210  -18.6334  -12.8656 O   0  0  0  0  0  0  0  0  0  0  0  0
   -2.9749  -17.7811  -12.7510 C   0  0  0  0  0  0  0  0  0  0  0  0
   -6.9842  -15.3118   -8.4795 C   0  0  0  0  0  0  0  0  0  0  0  0
  1  4  1  0
  1 11  1  0
  2  6  2  0
  2  8  1  0
  3  4  1  0
  3  8  2  0
  4  7  2  0
  5 10  2  0
  6  7  1  0
  6 10  1  0
  9 10  1  0
M  END
>  <ID>  (1) 
conformer_0

$$$$
