
     RDKit          3D

 28 29  0  0  0  0  0  0  0  0999 V2000
   -7.4305  -15.2305   -7.8482 C   0  0  0  0  0  0  0  0  0  0  0  0
   -3.4680  -16.7212  -11.3704 N   0  0  0  0  0  0  0  0  0  0  0  0
   -3.3643  -16.0897  -12.5361 C   0  0  0  0  0  0  0  0  0  0  0  0
   -5.0970  -15.7670   -8.6754 C   0  0  0  0  0  0  0  0  0  0  0  0
   -0.3079  -18.8572   -8.9167 C   0  0  0  0  0  0  0  0  0  0  0  0
   -2.5621  -15.3913  -13.2673 O   0  0  0  0  0  0  0  0  0  0  0  0
   -0.6574  -18.1238  -14.0225 O   0  0  0  0  0  0  0  0  0  0  0  0
   -7.2198  -17.3437   -9.2757 C   0  0  0  0  0  0  0  0  0  0  0  0
   -2.7008  -17.7782  -14.8419 O   0  0  0  0  0  0  0  0  0  0  0  0
   -0.1005  -20.7616  -10.8387 C   0  0  0  0  0  0  0  0  0  0  0  0
   -2.6729  -16.8432   -9.2915 O   0  0  0  0  0  0  0  0  0  0  0  0
    0.5692  -18.9351  -13.7968 C   0  0  0  0  0  0  0  0  0  0  0  0
   -1.0032  -19.7249  -11.0524 C   0  0  0  0  0  0  0  0  0  0  0  0
   -7.3461  -16.1979   -8.5204 C   0  0  0  0  0  0  0  0  0  0  0  0
   -2.5409  -18.4797  -12.5407 C   0  0  0  0  0  0  0  0  0  0  0  0
   -6.7625  -14.3581   -7.1254 F   0  0  0  0  0  0  0  0  0  0  0  0
   -5.9521  -17.7370   -9.7146 C   0  0  0  0  0  0  0  0  0  0  0  0
   -2.0220  -17.8913  -13.8209 C   0  0  0  0  0  0  0  0  0  0  0  0
    0.6895  -20.8732   -9.6957 C   0  0  0  0  0  0  0  0  0  0  0  0
   -2.3366  -20.9337  -12.8322 C   0  0  0  0  0  0  0  0  0  0  0  0
   -4.8746  -16.8926   -9.4778 C   0  0  0  0  0  0  0  0  0  0  0  0
   -6.4132  -15.5101   -8.2354 C   0  0  0  0  0  0  0  0  0  0  0  0
   -3.3748  -18.0762  -11.3145 C   0  0  0  0  0  0  0  0  0  0  0  0
    0.5998  -19.9199   -8.7153 C   0  0  0  0  0  0  0  0  0  0  0  0
   -3.5536  -17.1717  -10.1583 C   0  0  0  0  0  0  0  0  0  0  0  0
   -1.7113  -19.6691  -12.3354 C   0  0  0  0  0  0  0  0  0  0  0  0
   -1.0760  -18.8071  -10.0529 C   0  0  0  0  0  0  0  0  0  0  0  0
   -8.7968  -14.9771   -7.5915 F   0  0  0  0  0  0  0  0  0  0  0  0
  1 14  1  0
  1 16  1  0
  1 22  1  0
  1 28  1  0
  2  3  1  0
  2 23  1  0
  2 25  1  0
  3  6  1  0
  4 21  2  0
  4 22  1  0
  5 24  1  0
  5 27  1  0
  7 12  1  0
  7 18  1  0
  8 14  1  0
  8 17  2  0
  9 18  2  0
 10 13  1  0
 10 19  1  0
 11 25  1  0
 13 26  1  0
 13 27  2  0
 15 18  1  0
 15 23  1  0
 15 26  1  0
 17 21  1  0
 19 24  2  0
 20 26  1  0
 21 25  1  0
M  END
>  <ID>  (1) 
conformer_0

$$$$
