
     RDKit          3D

 27 30  0  0  0  0  0  0  0  0999 V2000
   -2.3445  -17.6408  -15.4788 C   0  0  0  0  0  0  0  0  0  0  0  0
   -5.7938  -15.1703   -8.7034 C   0  0  0  0  0  0  0  0  0  0  0  0
   -0.7047  -22.6843  -13.2702 C   0  0  0  0  0  0  0  0  0  0  0  0
   -5.7658  -17.5237   -9.2273 C   0  0  0  0  0  0  0  0  0  0  0  0
    1.5831  -23.3208  -12.0658 O   0  0  0  0  0  0  0  0  0  0  0  0
   -0.2315  -21.6999  -12.1628 C   0  0  0  0  0  0  0  0  0  0  0  0
   -2.4486  -16.2451  -13.6365 O   0  0  0  0  0  0  0  0  0  0  0  0
    0.6792  -21.9829  -10.0723 C   0  0  0  0  0  0  0  0  0  0  0  0
   -3.1858  -17.3387  -10.0798 N   0  0  0  0  0  0  0  0  0  0  0  0
   -0.6609  -19.8301  -10.2458 C   0  0  0  0  0  0  0  0  0  0  0  0
    0.8718  -22.6900  -11.3754 C   0  0  0  0  0  0  0  0  0  0  0  0
   -7.0805  -17.6043   -8.8771 C   0  0  0  0  0  0  0  0  0  0  0  0
   -0.6520  -20.3892  -12.9002 O   0  0  0  0  0  0  0  0  0  0  0  0
   -0.1434  -19.7208   -8.9360 O   0  0  0  0  0  0  0  0  0  0  0  0
   -3.2204  -17.5720  -11.4931 C   0  0  0  0  0  0  0  0  0  0  0  0
   -5.1345  -16.3078   -9.1513 C   0  0  0  0  0  0  0  0  0  0  0  0
   -7.7535  -16.4617   -8.4635 C   0  0  0  0  0  0  0  0  0  0  0  0
   -2.1284  -18.4796  -11.8659 C   0  0  0  0  0  0  0  0  0  0  0  0
   -7.1129  -15.2740   -8.3680 C   0  0  0  0  0  0  0  0  0  0  0  0
   -3.7194  -16.1667   -9.5158 C   0  0  0  0  0  0  0  0  0  0  0  0
   -2.0004  -18.5557  -13.2845 N   0  0  0  0  0  0  0  0  0  0  0  0
   -2.3818  -17.4460  -14.0343 C   0  0  0  0  0  0  0  0  0  0  0  0
   -0.5268  -21.2115  -10.7092 C   0  0  0  0  0  0  0  0  0  0  0  0
   -1.4100  -18.6588  -10.5973 C   0  0  0  0  0  0  0  0  0  0  0  0
   -1.8129  -19.7122  -12.6536 C   0  0  0  0  0  0  0  0  0  0  0  0
   -1.9834  -17.7679   -9.6189 C   0  0  0  0  0  0  0  0  0  0  0  0
   -1.3970  -17.1582   -8.7368 O   0  0  0  0  0  0  0  0  0  0  0  0
  1 22  1  0
  2 16  1  0
  2 19  1  0
  3  6  1  0
  4 12  1  0
  4 16  2  0
  5 11  2  0
  6 11  1  0
  6 13  1  0
  6 23  1  0
  7 22  2  0
  8 11  1  0
  8 23  1  0
  9 15  1  0
  9 20  1  0
  9 26  1  0
 10 14  1  0
 10 23  1  0
 10 24  1  0
 12 17  1  0
 13 25  1  0
 15 18  1  0
 16 20  1  0
 17 19  2  0
 18 21  1  0
 18 24  1  0
 21 22  1  0
 21 25  1  0
 24 26  1  0
 26 27  2  0
M  END
>  <ID>  (1) 
conformer_0

$$$$
