
     RDKit          3D

 14 15  0  0  0  0  0  0  0  0999 V2000
   -2.5542  -15.9276  -13.0240 O   0  0  0  0  0  1  0  0  0  0  0  0
   -6.8084  -15.9707   -8.3023 C   0  0  0  0  0  0  0  0  0  0  0  0
   -4.9665  -17.2999   -9.9208 C   0  0  0  0  0  0  0  0  0  0  0  0
   -7.1894  -17.0448   -9.0617 C   0  0  0  0  0  0  0  0  0  0  0  0
   -5.4900  -15.6425   -8.2081 C   0  0  0  0  0  0  0  0  0  0  0  0
   -4.5641  -16.3708   -8.9346 C   0  0  0  0  0  0  0  0  0  0  0  0
   -1.1239  -18.3021  -12.6923 C   0  0  0  0  0  0  0  0  0  0  0  0
   -2.7447  -17.1065   -9.9880 C   0  0  0  0  0  0  0  0  0  0  0  0
   -3.1838  -16.3193   -8.9079 O   0  0  0  0  0  0  0  0  0  0  0  0
   -2.6326  -17.4807  -13.1943 S   0  0  0  0  0  4  0  0  0  0  0  0
   -2.9464  -17.8614  -14.5608 O   0  0  0  0  0  1  0  0  0  0  0  0
   -3.8807  -18.0393  -12.0495 C   0  0  0  0  0  0  0  0  0  0  0  0
   -6.2699  -17.7029   -9.8833 C   0  0  0  0  0  0  0  0  0  0  0  0
   -3.8508  -17.5535  -10.6533 C   0  0  0  0  0  0  0  0  0  0  0  0
  1 10  1  0
  2  4  1  0
  2  5  2  0
  3  6  1  0
  3 13  2  0
  3 14  1  0
  4 13  1  0
  5  6  1  0
  6  9  1  0
  7 10  1  0
  8  9  1  0
  8 14  1  0
 10 11  1  0
 10 12  1  0
 12 14  1  0
M  END
>  <ID>  (1) 
conformer_0

$$$$
