
     RDKit          3D

 17 19  0  0  0  0  0  0  0  0999 V2000
   -5.8827  -16.5215   -9.0876 C   0  0  0  0  0  0  0  0  0  0  0  0
   -3.8754  -17.1803  -10.2728 C   0  0  0  0  0  0  0  0  0  0  0  0
   -2.0920  -18.2107  -11.6285 C   0  0  0  0  0  0  0  0  0  0  0  0
   -1.6815  -18.5869  -12.9473 C   0  0  0  0  0  0  0  0  0  0  0  0
   -3.1598  -17.0488   -9.0939 C   0  0  0  0  0  0  0  0  0  0  0  0
   -1.8371  -18.1204  -15.2908 O   0  0  0  0  0  0  0  0  0  0  0  0
   -1.7645  -17.5635   -9.1366 O   0  0  0  0  0  0  0  0  0  0  0  0
   -3.0104  -16.8340  -13.7962 C   0  0  0  0  0  0  0  0  0  0  0  0
   -7.2612  -16.3117   -9.0416 O   0  0  0  0  0  0  0  0  0  0  0  0
   -5.0700  -16.1715   -8.0174 C   0  0  0  0  0  0  0  0  0  0  0  0
   -3.5274  -16.6089  -12.5936 C   0  0  0  0  0  0  0  0  0  0  0  0
   -7.5663  -14.9882   -8.4518 C   0  0  0  0  0  0  0  0  0  0  0  0
   -3.1785  -17.3326  -11.5171 C   0  0  0  0  0  0  0  0  0  0  0  0
   -3.7205  -16.4568   -7.9614 C   0  0  0  0  0  0  0  0  0  0  0  0
   -5.2572  -17.0630  -10.2230 C   0  0  0  0  0  0  0  0  0  0  0  0
   -2.1531  -17.8691  -14.0136 C   0  0  0  0  0  0  0  0  0  0  0  0
   -1.5102  -18.5680  -10.2897 C   0  0  0  0  0  0  0  0  0  0  0  0
  1  9  1  0
  1 10  1  0
  1 15  1  0
  2  5  1  0
  2 13  1  0
  2 15  2  0
  3  4  1  0
  3 13  1  0
  3 17  1  0
  4 16  2  0
  5  7  1  0
  5 14  1  0
  6 16  1  0
  7 17  1  0
  8 11  2  0
  8 16  1  0
  9 12  1  0
 10 14  2  0
 11 13  1  0
M  END
>  <ID>  (1) 
conformer_0

$$$$
