
     RDKit          3D

 19 21  0  0  0  0  0  0  0  0999 V2000
    0.0026  -20.8551  -10.7809 O   0  0  0  0  0  0  0  0  0  0  0  0
   -6.1578  -17.6193   -9.1191 C   0  0  0  0  0  0  0  0  0  0  0  0
   -5.2452  -16.5914   -9.1567 C   0  0  0  0  0  0  0  0  0  0  0  0
   -3.8542  -16.8514   -9.4500 C   0  0  0  0  0  0  0  0  0  0  0  0
   -1.3311  -18.9500  -10.0426 C   0  0  0  0  0  0  0  0  0  0  0  0
   -7.8656  -16.0632   -8.5017 C   0  0  0  0  0  0  0  0  0  0  0  0
   -7.4661  -17.3465   -8.7768 C   0  0  0  0  0  0  0  0  0  0  0  0
   -3.6790  -16.7086  -12.0549 N   0  0  0  0  0  0  0  0  0  0  0  0
   -6.9730  -15.0464   -8.5825 C   0  0  0  0  0  0  0  0  0  0  0  0
   -1.1840  -19.4102  -12.3629 C   0  0  0  0  0  0  0  0  0  0  0  0
   -3.4458  -17.2009  -10.7575 C   0  0  0  0  0  0  0  0  0  0  0  0
   -2.9913  -16.8544   -8.5067 O   0  0  0  0  0  0  0  0  0  0  0  0
   -2.2360  -17.9843  -10.7996 C   0  0  0  0  0  0  0  0  0  0  0  0
   -2.8220  -17.3565  -12.9655 C   0  0  0  0  0  0  0  0  0  0  0  0
   -1.9935  -18.2412  -12.2595 N   0  0  0  0  0  0  0  0  0  0  0  0
   -0.8008  -19.8964  -11.0529 C   0  0  0  0  0  0  0  0  0  0  0  0
   -0.6074  -19.7785  -13.4049 O   0  0  0  0  0  0  0  0  0  0  0  0
   -5.6655  -15.2838   -8.9042 C   0  0  0  0  0  0  0  0  0  0  0  0
   -2.8127  -17.1929  -14.1933 O   0  0  0  0  0  0  0  0  0  0  0  0
  1 16  2  0
  2  3  2  0
  2  7  1  0
  3  4  1  0
  3 18  1  0
  4 11  1  0
  4 12  2  0
  5 13  1  0
  5 16  1  0
  6  7  2  0
  6  9  1  0
  8 11  1  0
  8 14  1  0
  9 18  2  0
 10 15  1  0
 10 16  1  0
 10 17  2  0
 11 13  1  0
 13 15  1  0
 14 15  1  0
 14 19  2  0
M  END
>  <ID>  (1) 
conformer_0

$$$$
