
     RDKit          3D

 12 12  0  0  0  0  0  0  0  0999 V2000
   -4.8409  -16.1528   -8.3914 C   0  0  0  0  0  0  0  0  0  0  0  0
   -3.5396  -16.8853  -12.3756 C   0  0  0  0  0  0  0  0  0  0  0  0
   -3.1052  -16.5938   -9.9529 C   0  0  0  0  0  0  0  0  0  0  0  0
   -5.8090  -16.4294   -9.3516 C   0  0  0  0  0  0  0  0  0  0  0  0
   -2.9169  -15.7358  -12.8373 O   0  0  0  0  0  0  0  0  0  0  0  0
   -4.0377  -16.7935  -10.9752 C   0  0  0  0  0  0  0  0  0  0  0  0
   -2.4970  -17.7899  -14.3246 O   0  0  0  0  0  0  0  0  0  0  0  0
   -3.5151  -16.2821   -8.6953 C   0  0  0  0  0  0  0  0  0  0  0  0
   -7.2809  -15.0281   -8.0965 O   0  0  0  0  0  0  0  0  0  0  0  0
   -5.3728  -16.7875  -10.6385 C   0  0  0  0  0  0  0  0  0  0  0  0
   -7.2323  -16.2765   -8.9261 C   0  0  0  0  0  0  0  0  0  0  0  0
   -3.0185  -18.0859  -12.9482 C   0  0  0  0  0  0  0  0  0  0  0  0
  1  4  2  0
  1  8  1  0
  2  5  1  0
  2  6  1  0
  2 12  1  0
  3  6  1  0
  3  8  2  0
  4 10  1  0
  4 11  1  0
  6 10  2  0
  7 12  1  0
  9 11  1  0
M  END
>  <ID>  (1) 
conformer_0

$$$$
