
     RDKit          3D

 31 35  0  0  0  0  0  0  0  0999 V2000
   -0.9923  -18.9263  -12.2158 C   0  0  0  0  0  0  0  0  0  0  0  0
   -2.2931  -17.4863  -13.4878 C   0  0  0  0  0  0  0  0  0  0  0  0
   -7.1232  -16.4212   -8.6541 C   0  0  0  0  0  0  0  0  0  0  0  0
   -3.0626  -17.1619   -9.8068 C   0  0  0  0  0  0  0  0  0  0  0  0
   -5.4423  -17.8521   -9.6056 C   0  0  0  0  0  0  0  0  0  0  0  0
   -0.4394  -18.4439  -14.5340 N   0  0  0  0  0  0  0  0  0  0  0  0
   -6.1857  -15.5075   -8.4144 C   0  0  0  0  0  0  0  0  0  0  0  0
   -2.6673  -16.8520  -12.3307 C   0  0  0  0  0  0  0  0  0  0  0  0
    0.0005  -20.0307  -10.3817 C   0  0  0  0  0  0  0  0  0  0  0  0
   -2.8226  -17.3186  -14.7674 C   0  0  0  0  0  0  0  0  0  0  0  0
    1.8317  -21.0820  -14.8990 C   0  0  0  0  0  0  0  0  0  0  0  0
   -1.1019  -19.0307   -9.9502 O   0  0  0  0  0  0  0  0  0  0  0  0
   -8.3764  -16.1540   -8.2812 F   0  0  0  0  0  0  0  0  0  0  0  0
   -0.3159  -21.2125   -9.7523 O   0  0  0  0  0  0  0  0  0  0  0  0
    0.7095  -19.0826  -14.6334 N   0  0  0  0  0  0  0  0  0  0  0  0
    1.3329  -19.4760   -9.9397 C   0  0  0  0  0  0  0  0  0  0  0  0
   -2.5480  -17.4585  -11.0855 N   0  0  0  0  0  0  0  0  0  0  0  0
    0.7677  -22.1617  -12.6312 C   0  0  0  0  0  0  0  0  0  0  0  0
   -1.2054  -18.3649  -13.4577 C   0  0  0  0  0  0  0  0  0  0  0  0
   -4.4772  -16.9206   -9.4297 C   0  0  0  0  0  0  0  0  0  0  0  0
    0.5387  -20.8286  -12.8744 C   0  0  0  0  0  0  0  0  0  0  0  0
    2.0527  -22.3527  -14.6001 C   0  0  0  0  0  0  0  0  0  0  0  0
   -2.2300  -16.8443   -8.9362 O   0  0  0  0  0  0  0  0  0  0  0  0
   -3.1147  -15.6815  -12.3943 O   0  0  0  0  0  0  0  0  0  0  0  0
   -1.5403  -18.3764  -11.0633 C   0  0  0  0  0  0  0  0  0  0  0  0
   -6.7728  -17.5841   -9.2501 C   0  0  0  0  0  0  0  0  0  0  0  0
   -6.5205  -14.4024   -7.6839 F   0  0  0  0  0  0  0  0  0  0  0  0
    1.5058  -22.8982  -13.4841 C   0  0  0  0  0  0  0  0  0  0  0  0
   -4.8757  -15.7034   -8.8183 C   0  0  0  0  0  0  0  0  0  0  0  0
    1.0257  -20.3380  -14.1190 C   0  0  0  0  0  0  0  0  0  0  0  0
   -0.1271  -20.0458  -11.8752 C   0  0  0  0  0  0  0  0  0  0  0  0
  1 19  1  0
  1 25  1  0
  1 31  2  0
  2  8  1  0
  2 10  1  0
  2 19  1  0
  3  7  2  0
  3 13  1  0
  3 26  1  0
  4 17  1  0
  4 20  1  0
  4 23  2  0
  5 20  2  0
  5 26  1  0
  6 15  1  0
  6 19  2  0
  7 27  1  0
  7 29  1  0
  8 17  1  0
  8 24  2  0
  9 12  1  0
  9 14  1  0
  9 16  1  0
  9 31  1  0
 11 22  1  0
 11 30  2  0
 12 25  1  0
 15 30  1  0
 17 25  1  0
 18 21  2  0
 18 28  1  0
 20 29  1  0
 21 30  1  0
 21 31  1  0
 22 28  2  0
M  END
>  <ID>  (1) 
conformer_0

$$$$
