
     RDKit          3D

 22 23  0  0  0  0  0  0  0  0999 V2000
   -3.4895  -16.8619  -10.1814 C   0  0  0  0  0  0  0  0  0  0  0  0
   -7.9916  -16.8473   -8.0827 C   0  0  0  0  0  0  0  0  0  0  0  0
   -0.9432  -18.4760  -13.6942 O   0  0  0  0  0  0  0  0  0  0  0  0
   -7.1034  -14.6519   -8.2260 C   0  0  0  0  0  0  0  0  0  0  0  0
   -2.4705  -17.6585  -12.0750 N   0  0  0  0  0  0  0  0  0  0  0  0
   -4.4344  -16.3879  -12.2839 O   0  0  0  0  0  0  0  0  0  0  0  0
   -3.4817  -15.2350   -8.7084 O   0  0  0  0  0  0  0  0  0  0  0  0
   -5.9362  -15.0974   -8.6726 C   0  0  0  0  0  0  0  0  0  0  0  0
   -6.8035  -18.9347   -8.8176 C   0  0  0  0  0  0  0  0  0  0  0  0
   -1.8669  -17.5072   -8.6104 O   0  0  0  0  0  0  0  0  0  0  0  0
   -6.8340  -17.4025   -8.5587 C   0  0  0  0  0  0  0  0  0  0  0  0
   -7.4348  -19.0435  -10.2358 C   0  0  0  0  0  0  0  0  0  0  0  0
   -4.1400  -16.2691   -9.1720 C   0  0  0  0  0  0  0  0  0  0  0  0
   -8.1464  -15.4900   -7.9243 C   0  0  0  0  0  0  0  0  0  0  0  0
   -3.5334  -16.9222  -11.5931 C   0  0  0  0  0  0  0  0  0  0  0  0
   -2.8164  -17.5182  -14.4500 O   0  0  0  0  0  0  0  0  0  0  0  0
   -5.6093  -16.4093   -8.8458 C   0  0  0  0  0  0  0  0  0  0  0  0
   -9.4981  -14.8326   -7.5237 Cl  0  0  0  0  0  0  0  0  0  0  0  0
   -7.6796  -19.5761   -7.8191 F   0  0  0  0  0  0  0  0  0  0  0  0
   -2.0383  -17.8591  -13.4384 C   0  0  0  0  0  0  0  0  0  0  0  0
   -1.7661  -18.1247  -10.9297 C   0  0  0  0  0  0  0  0  0  0  0  0
   -2.3282  -17.5442   -9.8354 C   0  0  0  0  0  0  0  0  0  0  0  0
  1 13  1  0
  1 15  1  0
  1 22  2  0
  2 11  2  0
  2 14  1  0
  3 20  2  0
  4  8  1  0
  4 14  2  0
  5 15  1  0
  5 20  1  0
  5 21  1  0
  6 15  2  0
  7 13  1  0
  8 17  2  0
  9 11  1  0
  9 12  1  0
  9 19  1  0
 10 22  1  0
 11 17  1  0
 13 17  1  0
 14 18  1  0
 16 20  1  0
 21 22  1  0
M  END
>  <ID>  (1) 
conformer_0

$$$$
