
     RDKit          3D

 23 24  0  0  0  0  0  0  0  0999 V2000
   -3.5581  -17.6159  -10.3944 C   0  0  0  0  0  0  0  0  0  0  0  0
   -1.4026  -19.4666  -12.9796 C   0  0  0  0  0  0  0  0  0  0  0  0
   -2.6476  -16.2237  -13.1994 O   0  0  0  0  0  0  0  0  0  0  0  0
   -5.6081  -16.8252   -9.3225 C   0  0  0  0  0  0  0  0  0  0  0  0
   -2.5937  -18.3724  -11.2191 C   0  0  0  0  0  0  0  0  0  0  0  0
   -0.5549  -20.3096  -12.4693 N   0  0  0  0  0  0  0  0  0  0  0  0
   -7.5461  -14.4922   -9.1831 F   0  0  0  0  0  0  0  0  0  0  0  0
   -2.4642  -17.7110  -14.8410 O   0  0  0  0  0  0  0  0  0  0  0  0
   -7.5188  -15.4656   -8.2830 C   0  0  0  0  0  0  0  0  0  0  0  0
   -2.8796  -16.7387   -9.5675 C   0  0  0  0  0  0  0  0  0  0  0  0
   -0.1181  -20.4696  -11.2212 C   0  0  0  0  0  0  0  0  0  0  0  0
   -8.7729  -15.6813   -7.8455 F   0  0  0  0  0  0  0  0  0  0  0  0
   -2.2209  -18.4374  -12.5927 C   0  0  0  0  0  0  0  0  0  0  0  0
   -6.7666  -14.9574   -7.2362 F   0  0  0  0  0  0  0  0  0  0  0  0
   -4.8229  -15.9149   -8.6766 C   0  0  0  0  0  0  0  0  0  0  0  0
    1.0090  -21.2933  -10.9036 C   0  0  0  0  0  0  0  0  0  0  0  0
   -2.4976  -17.4134  -13.6058 C   0  0  0  0  0  0  0  0  0  0  0  0
   -0.4012  -19.8947   -8.8867 O   0  0  0  0  0  0  0  0  0  0  0  0
   -3.4572  -15.9033   -8.7726 C   0  0  0  0  0  0  0  0  0  0  0  0
   -0.7591  -19.7535  -10.1266 C   0  0  0  0  0  0  0  0  0  0  0  0
   -7.0402  -16.8174   -8.9534 C   0  0  0  0  0  0  0  0  0  0  0  0
   -1.7650  -18.9343  -10.3778 N   0  0  0  0  0  0  0  0  0  0  0  0
   -4.9315  -17.7418  -10.2338 C   0  0  0  0  0  0  0  0  0  0  0  0
  1  5  1  0
  1 10  1  0
  1 23  2  0
  2  6  2  0
  2 13  1  0
  3 17  2  0
  4 15  2  0
  4 21  1  0
  4 23  1  0
  5 13  1  0
  5 22  1  0
  6 11  1  0
  7  9  1  0
  8 17  1  0
  9 12  1  0
  9 14  1  0
  9 21  1  0
 10 19  2  0
 11 16  1  0
 11 20  1  0
 13 17  1  0
 15 19  1  0
 18 20  2  0
 20 22  1  0
M  END
>  <ID>  (1) 
conformer_0

$$$$
