
     RDKit          3D

 17 17  0  0  0  0  0  0  0  0999 V2000
   -6.7766  -16.0722   -8.4624 C   0  0  0  0  0  0  0  0  0  0  0  0
   -3.8011  -17.0079   -9.9592 C   0  0  0  0  0  0  0  0  0  0  0  0
   -2.2725  -17.9339  -11.7919 C   0  0  0  0  0  0  0  0  0  0  0  0
   -3.6933  -16.3173  -12.8590 O   0  0  0  0  0  0  0  0  0  0  0  0
   -7.5425  -17.0911   -8.0799 F   0  0  0  0  0  0  0  0  0  0  0  0
   -2.6576  -17.7063  -10.4548 C   0  0  0  0  0  0  0  0  0  0  0  0
   -5.1003  -17.2673   -9.8844 C   0  0  0  0  0  0  0  0  0  0  0  0
   -1.7632  -18.1560   -9.4211 C   0  0  0  0  0  0  0  0  0  0  0  0
   -7.5940  -15.1377   -8.8813 F   0  0  0  0  0  0  0  0  0  0  0  0
   -0.3623  -19.2787  -11.0350 C   0  0  0  0  0  0  0  0  0  0  0  0
   -5.9174  -16.6032   -9.3920 C   0  0  0  0  0  0  0  0  0  0  0  0
   -3.4340  -15.8515   -9.2649 O   0  0  0  0  0  0  0  0  0  0  0  0
   -1.1791  -18.7714  -12.0266 C   0  0  0  0  0  0  0  0  0  0  0  0
   -0.6714  -18.9222   -9.7078 C   0  0  0  0  0  0  0  0  0  0  0  0
   -2.9188  -17.3311  -12.9758 C   0  0  0  0  0  0  0  0  0  0  0  0
   -6.1742  -15.4926   -7.4604 F   0  0  0  0  0  0  0  0  0  0  0  0
   -2.6270  -17.7490  -14.1593 O   0  0  0  0  0  0  0  0  0  0  0  0
  1  5  1  0
  1  9  1  0
  1 11  1  0
  1 16  1  0
  2  6  1  0
  2  7  2  3
  2 12  1  0
  3  6  2  0
  3 13  1  0
  3 15  1  0
  4 15  2  0
  6  8  1  0
  7 11  1  0
  8 14  2  0
 10 13  2  0
 10 14  1  0
 15 17  1  0
M  END
>  <ID>  (1) 
conformer_0

$$$$
