
     RDKit          3D

 23 24  0  0  0  0  0  0  0  0999 V2000
   -1.0784  -17.0695   -8.7842 O   0  0  0  0  0  0  0  0  0  0  0  0
   -0.5450  -20.8941  -11.5198 O   0  0  0  0  0  0  0  0  0  0  0  0
   -1.4715  -18.9307  -13.3489 C   0  0  0  0  0  0  0  0  0  0  0  0
   -2.9683  -17.8195  -10.0726 C   0  0  0  0  0  0  0  0  0  0  0  0
   -2.0670  -18.0315  -14.1717 C   0  0  0  0  0  0  0  0  0  0  0  0
   -0.8694  -19.6838   -9.7808 O   0  0  0  0  0  0  0  0  0  0  0  0
   -4.3108  -17.8155   -9.6573 C   0  0  0  0  0  0  0  0  0  0  0  0
   -1.8237  -18.0340  -15.5044 O   0  0  0  0  0  0  0  0  0  0  0  0
   -7.5177  -15.3509   -8.1498 C   0  0  0  0  0  0  0  0  0  0  0  0
   -6.9552  -17.3498   -9.1412 C   0  0  0  0  0  0  0  0  0  0  0  0
   -2.2756  -17.0960   -9.1113 C   0  0  0  0  0  0  0  0  0  0  0  0
   -2.9431  -17.0852  -13.6924 C   0  0  0  0  0  0  0  0  0  0  0  0
   -6.1837  -14.9754   -8.0945 C   0  0  0  0  0  0  0  0  0  0  0  0
   -2.9982  -14.7740   -8.3994 F   0  0  0  0  0  0  0  0  0  0  0  0
   -3.1482  -16.2500   -8.4326 N   0  0  0  0  0  0  0  0  0  0  0  0
   -1.7067  -18.8903  -11.9529 C   0  0  0  0  0  0  0  0  0  0  0  0
   -5.3784  -15.8612   -8.5491 C   0  0  0  0  0  0  0  0  0  0  0  0
   -7.8140  -16.5558   -8.6906 C   0  0  0  0  0  0  0  0  0  0  0  0
   -3.2183  -17.0494  -12.3494 C   0  0  0  0  0  0  0  0  0  0  0  0
   -2.6115  -17.9375  -11.4705 C   0  0  0  0  0  0  0  0  0  0  0  0
   -8.5055  -14.4890   -7.6264 F   0  0  0  0  0  0  0  0  0  0  0  0
   -4.4842  -16.6741   -8.8977 C   0  0  0  0  0  0  0  0  0  0  0  0
   -1.0302  -19.8241  -11.0415 C   0  0  0  0  0  0  0  0  0  0  0  0
  1 11  2  0
  2 23  2  0
  3  5  2  0
  3 16  1  0
  4  7  1  0
  4 11  1  0
  4 20  1  0
  5  8  1  0
  5 12  1  0
  6 23  1  0
  7 22  1  0
  9 13  1  0
  9 18  1  0
  9 21  1  0
 10 18  2  0
 11 15  1  0
 12 19  2  0
 13 17  1  0
 14 15  1  0
 15 22  1  0
 16 20  2  0
 16 23  1  0
 17 22  1  0
 19 20  1  0
M  END
>  <ID>  (1) 
conformer_0

$$$$
