
     RDKit          3D

 29 31  0  0  0  0  0  0  0  0999 V2000
   -2.8341  -16.6825  -11.8831 C   0  0  0  0  0  0  0  0  0  0  0  0
   -8.0488  -18.9721   -8.7803 C   0  0  0  0  0  0  0  0  0  0  0  0
   -7.9544  -14.2775   -7.5467 F   0  0  0  0  0  0  0  0  0  0  0  0
   -0.8812  -21.5709  -10.3392 C   0  0  0  0  0  0  0  0  0  0  0  0
    1.0455  -22.0333  -11.4540 C   0  0  0  0  0  0  0  0  0  0  0  0
   -2.9226  -16.6655   -8.9330 C   0  0  0  0  0  0  0  0  0  0  0  0
   -8.0627  -16.4944   -8.2418 C   0  0  0  0  0  0  0  0  0  0  0  0
   -6.0806  -15.1771   -8.4963 C   0  0  0  0  0  0  0  0  0  0  0  0
   -9.1989  -18.7886   -9.5211 F   0  0  0  0  0  0  0  0  0  0  0  0
   -0.0659  -20.4200  -10.2371 C   0  0  0  0  0  0  0  0  0  0  0  0
   -2.0987  -18.0620  -13.7840 C   0  0  0  0  0  0  0  0  0  0  0  0
   -2.5707  -17.7486  -11.0687 C   0  0  0  0  0  0  0  0  0  0  0  0
   -8.2613  -19.4425   -7.5461 F   0  0  0  0  0  0  0  0  0  0  0  0
   -1.3634  -18.3592   -9.0284 N   0  0  0  0  0  0  0  0  0  0  0  0
    1.1561  -20.7109  -10.9506 C   0  0  0  0  0  0  0  0  0  0  0  0
   -2.5161  -19.0163  -11.6153 C   0  0  0  0  0  0  0  0  0  0  0  0
   -0.2275  -22.5505  -11.0906 C   0  0  0  0  0  0  0  0  0  0  0  0
   -2.2766  -17.5709   -9.6909 N   0  0  0  0  0  0  0  0  0  0  0  0
   -5.3875  -16.2816   -8.8498 C   0  0  0  0  0  0  0  0  0  0  0  0
   -2.1958  -19.1689  -12.9610 C   0  0  0  0  0  0  0  0  0  0  0  0
   -7.3873  -17.6227   -8.6611 C   0  0  0  0  0  0  0  0  0  0  0  0
   -0.0355  -18.5082  -14.7830 C   0  0  0  0  0  0  0  0  0  0  0  0
   -7.1662  -19.8177   -9.3945 F   0  0  0  0  0  0  0  0  0  0  0  0
   -1.5241  -18.1514  -14.9958 O   0  0  0  0  0  0  0  0  0  0  0  0
   -4.0061  -16.1024   -8.9337 C   0  0  0  0  0  0  0  0  0  0  0  0
   -7.3615  -15.3551   -8.1109 C   0  0  0  0  0  0  0  0  0  0  0  0
   -0.3854  -19.1740   -9.5206 C   0  0  0  0  0  0  0  0  0  0  0  0
   -2.5754  -16.8343  -13.2608 C   0  0  0  0  0  0  0  0  0  0  0  0
   -6.0099  -17.5189   -9.0080 C   0  0  0  0  0  0  0  0  0  0  0  0
  1 12  1  0
  1 28  2  0
  2  9  1  0
  2 13  1  0
  2 21  1  0
  2 23  1  0
  3 26  1  0
  4 10  1  0
  4 17  1  0
  5 15  1  0
  5 17  1  0
  6 18  1  0
  6 25  1  0
  7 21  2  0
  7 26  1  0
  8 19  1  0
  8 26  2  0
 10 15  1  0
 10 27  1  0
 11 20  2  0
 11 24  1  0
 11 28  1  0
 12 16  1  0
 12 18  1  0
 14 18  1  0
 14 27  1  0
 16 20  1  0
 19 25  1  0
 19 29  2  0
 21 29  1  0
 22 24  1  0
M  END
>  <ID>  (1) 
conformer_0

$$$$
