
     RDKit          3D

 27 30  0  0  0  0  0  0  0  0999 V2000
   -2.6659  -17.1603  -10.5648 O   0  0  0  0  0  0  0  0  0  0  0  0
   -3.3095  -18.1233  -14.5701 C   0  0  0  0  0  0  0  0  0  0  0  0
   -3.5592  -16.7967  -12.6530 C   0  0  0  0  0  0  0  0  0  0  0  0
   -6.3219  -14.3881   -8.1119 C   0  0  0  0  0  0  0  0  0  0  0  0
   -2.1523  -18.7496  -12.3813 C   0  0  0  0  0  0  0  0  0  0  0  0
   -2.5483  -17.7352  -13.3710 C   0  0  0  0  0  0  0  0  0  0  0  0
   -3.1130  -15.5241  -12.8231 O   0  0  0  0  0  0  0  0  0  0  0  0
   -6.0934  -15.5641   -8.7285 C   0  0  0  0  0  0  0  0  0  0  0  0
   -1.2624  -17.0986  -13.9119 C   0  0  0  0  0  0  0  0  0  0  0  0
   -2.6897  -16.4457   -9.3421 C   0  0  0  0  0  0  0  0  0  0  0  0
   -4.9732  -15.9603   -9.3661 N   0  0  0  0  0  0  0  0  0  0  0  0
   -8.2457  -15.8676   -8.0982 C   0  0  0  0  0  0  0  0  0  0  0  0
   -1.7302  -20.0973  -12.4217 O   0  0  0  0  0  0  0  0  0  0  0  0
   -1.9697  -16.8881   -8.3970 O   0  0  0  0  0  0  0  0  0  0  0  0
   -3.6883  -15.3140   -9.2137 C   0  0  0  0  0  0  0  0  0  0  0  0
   -1.5768  -20.8906  -11.2342 C   0  0  0  0  0  0  0  0  0  0  0  0
   -5.9331  -17.9772   -9.9751 N   0  0  0  0  0  0  0  0  0  0  0  0
   -7.1790  -16.4562   -8.7056 C   0  0  0  0  0  0  0  0  0  0  0  0
   -3.9752  -17.0478  -11.2833 C   0  0  0  0  0  0  0  0  0  0  0  0
   -7.0155  -17.6698   -9.2589 N   0  0  0  0  0  0  0  0  0  0  0  0
    0.5423  -20.8296  -10.4595 O   0  0  0  0  0  0  0  0  0  0  0  0
   -0.8186  -18.7571  -10.2938 C   0  0  0  0  0  0  0  0  0  0  0  0
   -0.7753  -20.3757   -8.7077 O   0  0  0  0  0  0  0  0  0  0  0  0
   -1.8395  -18.1290  -11.0862 C   0  0  0  0  0  0  0  0  0  0  0  0
   -5.0168  -17.0162  -10.1825 C   0  0  0  0  0  0  0  0  0  0  0  0
   -0.6658  -20.2552  -10.1273 C   0  0  0  0  0  0  0  0  0  0  0  0
   -7.7190  -14.5614   -7.7423 C   0  0  0  0  0  0  0  0  0  0  0  0
  1 10  1  0
  1 24  1  0
  2  6  1  0
  3  6  1  0
  3  7  1  0
  3 19  1  0
  4  8  1  0
  4 27  1  0
  5  6  1  0
  5 13  1  0
  5 24  1  0
  6  9  1  0
  8 11  1  0
  8 18  1  0
 10 14  2  0
 10 15  1  0
 11 15  1  0
 11 25  1  0
 12 18  1  0
 12 27  1  0
 13 16  1  0
 16 26  1  0
 17 20  1  0
 17 25  2  0
 18 20  2  0
 19 25  1  0
 21 26  1  0
 22 24  1  0
 22 26  1  0
 23 26  1  0
M  END
>  <ID>  (1) 
conformer_0

$$$$
