
     RDKit          3D

 18 20  0  0  0  0  0  0  0  0999 V2000
   -7.0196  -15.3443   -8.1692 C   0  0  0  0  0  0  0  0  0  0  0  0
   -4.8683  -16.0834   -9.0438 C   0  0  0  0  0  0  0  0  0  0  0  0
   -2.8281  -14.7395   -8.7506 F   0  0  0  0  0  0  0  0  0  0  0  0
   -7.4187  -17.6162   -8.9347 C   0  0  0  0  0  0  0  0  0  0  0  0
   -5.6905  -15.1953   -8.4717 C   0  0  0  0  0  0  0  0  0  0  0  0
   -5.1460  -17.3165   -9.7787 C   0  0  0  0  0  0  0  0  0  0  0  0
   -1.6574  -17.4359  -10.1485 C   0  0  0  0  0  0  0  0  0  0  0  0
   -2.8502  -17.6981  -14.6038 O   0  0  0  0  0  0  0  0  0  0  0  0
   -3.9936  -17.6066  -10.5694 C   0  0  0  0  0  0  0  0  0  0  0  0
   -3.4071  -15.8525   -9.1201 C   0  0  0  0  0  0  0  0  0  0  0  0
   -3.7339  -18.1183  -11.8468 C   0  0  0  0  0  0  0  0  0  0  0  0
   -1.4020  -18.0586  -11.3730 C   0  0  0  0  0  0  0  0  0  0  0  0
   -7.7342  -16.4533   -8.3739 C   0  0  0  0  0  0  0  0  0  0  0  0
   -2.8991  -16.9593   -9.9215 C   0  0  0  0  0  0  0  0  0  0  0  0
   -2.3841  -18.1346  -12.3276 C   0  0  0  0  0  0  0  0  0  0  0  0
   -1.9994  -18.1524  -13.7295 C   0  0  0  0  0  0  0  0  0  0  0  0
   -0.7712  -18.3619  -14.0677 O   0  0  0  0  0  0  0  0  0  0  0  0
   -6.3003  -18.0351   -9.5715 C   0  0  0  0  0  0  0  0  0  0  0  0
  1  5  2  0
  1 13  1  0
  2  5  1  0
  2  6  1  0
  2 10  2  0
  3 10  1  0
  4 13  2  0
  4 18  1  0
  6  9  1  0
  6 18  2  0
  7 12  2  0
  7 14  1  0
  8 16  2  0
  9 11  2  0
  9 14  1  0
 10 14  1  0
 11 15  1  0
 12 15  1  0
 15 16  1  0
 16 17  1  0
M  END
>  <ID>  (1) 
conformer_0

$$$$
