
     RDKit          3D

 29 28  0  0  0  0  0  0  0  0999 V2000
   -4.4601  -16.4845   -9.4869 C   0  0  0  0  0  0  0  0  0  0  0  0
   -1.3465  -18.8058  -12.6470 C   0  0  0  0  0  0  0  0  0  0  0  0
   -6.7293  -14.7670   -7.8340 C   0  0  0  0  0  0  0  0  0  0  0  0
   -2.1954  -17.6480  -10.2263 C   0  0  0  0  0  0  0  0  0  0  0  0
   -4.1581  -15.8674   -8.4754 C   0  0  0  0  0  0  0  0  0  0  0  0
   -3.4517  -16.1085  -11.7493 C   0  0  0  0  0  0  0  0  0  0  0  0
   -8.4658  -16.2567   -7.6077 F   0  0  0  0  0  0  0  0  0  0  0  0
   -2.0239  -18.0756  -13.5733 O   0  0  0  0  0  0  0  0  0  0  0  0
   -1.7991  -20.6089  -13.0149 O   0  0  0  0  0  0  0  0  0  0  0  0
   -0.0413  -21.9204  -13.5936 O   0  0  0  0  0  0  0  0  0  0  0  0
   -1.5498  -18.6384  -11.2283 C   0  0  0  0  0  0  0  0  0  0  0  0
   -0.5806  -21.1642  -12.6680 C   0  0  0  0  0  0  0  0  0  0  0  0
   -2.1395  -17.5846   -8.8068 C   0  0  0  0  0  0  0  0  0  0  0  0
   -7.1025  -14.0802   -8.9026 F   0  0  0  0  0  0  0  0  0  0  0  0
   -3.0537  -16.6409   -7.8938 F   0  0  0  0  0  0  0  0  0  0  0  0
   -6.3414  -15.9884   -8.4672 C   0  0  0  0  0  0  0  0  0  0  0  0
   -0.3658  -20.9268  -11.2847 C   0  0  0  0  0  0  0  0  0  0  0  0
   -7.0034  -18.0175   -7.8989 F   0  0  0  0  0  0  0  0  0  0  0  0
   -5.4908  -16.3454   -6.5775 F   0  0  0  0  0  0  0  0  0  0  0  0
    0.4267  -19.2797  -14.3861 O   0  0  0  0  0  0  0  0  0  0  0  0
   -3.5683  -17.1566  -10.6683 C   0  0  0  0  0  0  0  0  0  0  0  0
   -7.4046  -16.7364   -8.0639 C   0  0  0  0  0  0  0  0  0  0  0  0
   -0.9295  -19.7578  -10.4706 O   0  0  0  0  0  0  0  0  0  0  0  0
   -5.9789  -16.4005   -9.8034 F   0  0  0  0  0  0  0  0  0  0  0  0
   -5.3651  -15.5416   -7.7842 C   0  0  0  0  0  0  0  0  0  0  0  0
   -7.0778  -14.3865   -6.6293 F   0  0  0  0  0  0  0  0  0  0  0  0
   -4.2919  -18.3948  -11.3323 C   0  0  0  0  0  0  0  0  0  0  0  0
    0.1116  -19.0386  -13.0925 C   0  0  0  0  0  0  0  0  0  0  0  0
   -4.6086  -14.4631   -7.9370 F   0  0  0  0  0  0  0  0  0  0  0  0
  1  5  1  0
  1 21  1  0
  2  8  1  0
  2 11  1  0
  2 28  1  0
  3 14  1  0
  3 16  1  0
  3 26  1  0
  4 11  1  0
  4 13  1  0
  4 21  1  0
  5 15  1  0
  5 25  1  0
  6 21  1  0
  7 22  1  0
  9 12  2  0
 10 12  1  0
 11 23  1  0
 12 17  1  0
 16 22  1  0
 16 24  1  0
 16 25  1  0
 17 23  1  0
 18 22  1  0
 19 25  1  0
 20 28  1  0
 21 27  1  0
 25 29  1  0
M  END
>  <ID>  (1) 
conformer_0

$$$$
