
     RDKit          3D

  6  5  0  0  0  0  0  0  0  0999 V2000
   -4.0061  -16.4909  -10.9769 C   0  0  0  0  0  0  0  0  0  0  0  0
   -6.6598  -15.6934   -8.5570 C   0  0  0  0  0  0  0  0  0  0  0  0
   -2.7203  -16.7177  -13.1762 C   0  0  0  0  0  0  0  0  0  0  0  0
   -5.1114  -17.0512  -10.0586 C   0  0  0  0  0  0  0  0  0  0  0  0
   -3.7741  -17.1728  -12.2602 C   0  0  0  0  0  0  0  0  0  0  0  0
   -5.2653  -16.2975   -8.7295 C   0  0  0  0  0  0  0  0  0  0  0  0
  1  4  1  0
  1  5  2  3
  2  6  1  0
  3  5  1  0
  4  6  1  0
M  END
>  <ID>  (1) 
conformer_0

$$$$
