
     RDKit          3D

 14 14  0  0  0  0  0  0  0  0999 V2000
   -2.3919  -17.7481  -10.4397 C   0  0  0  0  0  0  0  0  0  0  0  0
   -6.4672  -16.2257   -8.5042 C   0  0  0  0  0  0  0  0  0  0  0  0
   -2.4759  -18.1077  -12.9931 C   0  0  0  0  0  0  0  0  0  0  0  0
   -2.9930  -17.2830   -9.2802 C   0  0  0  0  0  0  0  0  0  0  0  0
   -2.3794  -17.3481  -14.0623 O   0  0  0  0  0  0  0  0  0  0  0  0
   -7.2705  -14.9980   -8.3948 C   0  0  0  0  0  0  0  0  0  0  0  0
   -6.8618  -17.6201   -9.0120 C   0  0  0  0  0  0  0  0  0  0  0  0
   -4.6778  -16.2796  -10.6160 C   0  0  0  0  0  0  0  0  0  0  0  0
   -4.1940  -16.5819   -9.3843 C   0  0  0  0  0  0  0  0  0  0  0  0
   -2.9472  -17.4930  -11.7198 C   0  0  0  0  0  0  0  0  0  0  0  0
   -4.9854  -16.1421   -8.1888 C   0  0  0  0  0  0  0  0  0  0  0  0
   -4.0828  -16.6991  -11.7600 C   0  0  0  0  0  0  0  0  0  0  0  0
   -1.2264  -18.4782  -10.2898 O   0  0  0  0  0  0  0  0  0  0  0  0
   -2.4121  -19.3968  -13.0313 O   0  0  0  0  0  0  0  0  0  0  0  0
  1  4  2  0
  1 10  1  0
  1 13  1  0
  2  6  1  0
  2  7  1  0
  2 11  1  0
  3  5  2  0
  3 10  1  0
  3 14  1  0
  4  9  1  0
  8  9  2  0
  8 12  1  0
  9 11  1  0
 10 12  2  0
M  END
>  <ID>  (1) 
conformer_0

$$$$
