
     RDKit          3D

 28 30  0  0  0  0  0  0  0  0999 V2000
   -0.5755  -19.0243   -9.0054 N   0  0  0  0  0  0  0  0  0  0  0  0
   -7.2781  -16.7970   -8.4945 C   0  0  0  0  0  0  0  0  0  0  0  0
   -2.9594  -17.4624  -14.4328 O   0  0  0  0  0  0  0  0  0  0  0  0
   -0.5267  -22.4546  -13.4799 O   0  0  0  0  0  0  0  0  0  0  0  0
   -2.5996  -21.1365  -13.2433 C   0  0  0  0  0  0  0  0  0  0  0  0
   -1.7819  -22.4927  -12.8294 C   0  0  0  0  0  0  0  0  0  0  0  0
   -4.7585  -16.8575  -10.2029 C   0  0  0  0  0  0  0  0  0  0  0  0
   -1.2148  -17.9923   -8.3608 C   0  0  0  0  0  0  0  0  0  0  0  0
   -5.8915  -14.9990   -9.1156 C   0  0  0  0  0  0  0  0  0  0  0  0
   -1.9240  -18.7257  -10.9693 C   0  0  0  0  0  0  0  0  0  0  0  0
   -2.2634  -17.3283   -8.9981 C   0  0  0  0  0  0  0  0  0  0  0  0
   -0.9091  -17.4987  -13.4367 O   0  0  0  0  0  0  0  0  0  0  0  0
   -2.4006  -18.9796  -12.3761 C   0  0  0  0  0  0  0  0  0  0  0  0
   -1.7785  -20.0050  -13.0050 N   0  0  0  0  0  0  0  0  0  0  0  0
   -0.9345  -19.3444  -10.2975 C   0  0  0  0  0  0  0  0  0  0  0  0
   -7.8392  -14.6735   -7.9564 F   0  0  0  0  0  0  0  0  0  0  0  0
   -3.2603  -15.4413  -12.7603 O   0  0  0  0  0  0  0  0  0  0  0  0
   -3.6332  -17.1023  -11.0456 C   0  0  0  0  0  0  0  0  0  0  0  0
   -4.9543  -15.5715   -9.8055 C   0  0  0  0  0  0  0  0  0  0  0  0
   -2.6599  -23.7225  -13.3510 C   0  0  0  0  0  0  0  0  0  0  0  0
   -2.3200  -17.6259  -13.1683 C   0  0  0  0  0  0  0  0  0  0  0  0
   -6.9994  -15.4847   -8.5423 C   0  0  0  0  0  0  0  0  0  0  0  0
   -2.5897  -17.7377  -10.2894 C   0  0  0  0  0  0  0  0  0  0  0  0
   -7.2816  -19.0242   -8.7251 F   0  0  0  0  0  0  0  0  0  0  0  0
   -1.6764  -22.4592  -11.3990 O   0  0  0  0  0  0  0  0  0  0  0  0
   -3.1600  -16.6357  -12.2725 C   0  0  0  0  0  0  0  0  0  0  0  0
   -5.5698  -17.9187   -9.7842 C   0  0  0  0  0  0  0  0  0  0  0  0
   -6.6964  -17.8714   -9.0096 C   0  0  0  0  0  0  0  0  0  0  0  0
  1  8  2  0
  1 15  1  0
  2 22  2  0
  2 28  1  0
  3 21  1  0
  4  6  1  0
  5  6  1  0
  5 14  1  0
  6 20  1  0
  6 25  1  0
  7 18  1  0
  7 19  1  0
  7 27  1  0
  8 11  1  0
  9 19  2  0
  9 22  1  0
 10 13  1  0
 10 15  2  0
 10 23  1  0
 11 23  2  0
 12 21  1  0
 13 14  1  0
 13 21  1  0
 16 22  1  0
 17 26  1  0
 18 23  1  0
 18 26  1  0
 21 26  1  0
 24 28  1  0
 27 28  2  0
M  END
>  <ID>  (1) 
conformer_0

$$$$
