
     RDKit          3D

 20 20  0  0  0  0  0  0  0  0999 V2000
   -3.8032  -16.7805  -10.9783 C   0  0  0  0  0  0  0  0  0  0  0  0
   -5.0573  -15.5502   -9.3748 C   0  0  0  0  0  0  0  0  0  0  0  0
   -2.3658  -17.6980   -9.3455 O   0  0  0  0  0  0  0  0  0  0  0  0
   -0.9476  -20.8189  -12.9112 O   0  0  0  0  0  0  0  0  0  0  0  0
   -8.0637  -14.6857   -7.7333 O   0  0  0  0  0  0  0  0  0  0  0  0
   -3.2168  -15.7471  -11.4873 O   0  0  0  0  0  0  0  0  0  0  0  0
   -1.9616  -20.4159  -12.2953 C   0  0  0  0  0  0  0  0  0  0  0  0
   -1.1394  -17.7698  -13.4413 C   0  0  0  0  0  0  0  0  0  0  0  0
   -5.6830  -17.8401   -9.7227 C   0  0  0  0  0  0  0  0  0  0  0  0
   -6.8326  -17.8007   -9.0319 C   0  0  0  0  0  0  0  0  0  0  0  0
   -2.9487  -19.3179  -12.6370 C   0  0  0  0  0  0  0  0  0  0  0  0
   -6.0290  -15.0731   -8.7122 C   0  0  0  0  0  0  0  0  0  0  0  0
   -3.4204  -17.1989  -13.6963 O   0  0  0  0  0  0  0  0  0  0  0  0
   -2.5112  -18.0089  -13.1417 C   0  0  0  0  0  0  0  0  0  0  0  0
   -3.6384  -19.1696  -11.2044 C   0  0  0  0  0  0  0  0  0  0  0  0
   -7.5158  -16.8283   -8.4799 C   0  0  0  0  0  0  0  0  0  0  0  0
   -0.2621  -18.4715  -14.3191 C   0  0  0  0  0  0  0  0  0  0  0  0
   -7.2283  -15.5155   -8.3182 C   0  0  0  0  0  0  0  0  0  0  0  0
   -2.8791  -17.9830  -10.6246 C   0  0  0  0  0  0  0  0  0  0  0  0
   -4.8826  -16.7395   -9.9660 N   0  0  0  0  0  0  0  0  0  0  0  0
  1  6  2  0
  1 19  1  0
  1 20  1  0
  2 12  2  0
  2 20  1  0
  3 19  1  0
  4  7  2  0
  5 18  1  0
  7 11  1  0
  8 14  1  0
  8 17  1  0
  9 10  1  0
  9 20  1  0
 10 16  2  0
 11 14  1  0
 11 15  1  0
 12 18  1  0
 13 14  1  0
 15 19  1  0
 16 18  1  0
M  END
>  <ID>  (1) 
conformer_0

$$$$
