
     RDKit          3D

 18 18  0  0  0  0  0  0  0  0999 V2000
   -0.4048  -21.2240  -10.2960 O   0  0  0  0  0  0  0  0  0  0  0  0
   -6.6137  -15.8753   -8.5886 C   0  0  0  0  0  0  0  0  0  0  0  0
   -1.9922  -19.3762  -12.1464 C   0  0  0  0  0  0  0  0  0  0  0  0
   -5.2951  -15.6679   -9.0240 C   0  0  0  0  0  0  0  0  0  0  0  0
   -3.4106  -16.4625  -10.3234 O   0  0  0  0  0  0  0  0  0  0  0  0
   -2.9439  -17.4550  -13.9033 O   0  0  0  0  0  0  0  0  0  0  0  0
   -2.9390  -15.5194  -12.9379 O   0  0  0  0  0  0  0  0  0  0  0  0
   -0.2984  -19.2976   -9.2859 O   0  0  0  0  0  0  0  0  0  0  0  0
   -7.3788  -14.7963   -8.0092 C   0  0  0  0  0  0  0  0  0  0  0  0
   -7.2221  -17.1072   -8.7652 C   0  0  0  0  0  0  0  0  0  0  0  0
   -4.6603  -16.7085   -9.7150 C   0  0  0  0  0  0  0  0  0  0  0  0
   -3.0555  -16.7864  -12.8224 C   0  0  0  0  0  0  0  0  0  0  0  0
   -0.5203  -19.2357  -11.6247 C   0  0  0  0  0  0  0  0  0  0  0  0
   -3.1580  -17.2786  -11.4465 C   0  0  0  0  0  0  0  0  0  0  0  0
   -2.9033  -18.7247  -11.0016 C   0  0  0  0  0  0  0  0  0  0  0  0
   -6.5521  -18.1179   -9.4219 C   0  0  0  0  0  0  0  0  0  0  0  0
   -0.3872  -20.0023  -10.3019 C   0  0  0  0  0  0  0  0  0  0  0  0
   -5.2797  -17.9219   -9.8871 C   0  0  0  0  0  0  0  0  0  0  0  0
  1 17  2  0
  2  4  2  0
  2  9  1  0
  2 10  1  0
  3 13  1  0
  3 15  1  0
  4 11  1  0
  5 11  1  0
  5 14  1  0
  6 12  2  0
  7 12  1  0
  8 17  1  0
 10 16  2  0
 11 18  2  0
 12 14  1  0
 13 17  1  0
 14 15  1  0
 16 18  1  0
M  END
>  <ID>  (1) 
conformer_0

$$$$
