
     RDKit          3D

 24 26  0  0  0  0  0  0  0  0999 V2000
   -2.5782  -18.2576  -13.7838 O   0  0  0  0  0  0  0  0  0  0  0  0
   -6.9447  -15.3904   -8.1531 C   0  0  0  0  0  0  0  0  0  0  0  0
   -2.8216  -17.2483  -12.8748 C   0  0  0  0  0  0  0  0  0  0  0  0
   -0.6857  -20.6663  -12.3860 C   0  0  0  0  0  0  0  0  0  0  0  0
    0.2506  -20.0485  -13.1530 O   0  0  0  0  0  0  0  0  0  0  0  0
   -1.3081  -18.7632   -9.9709 N   0  0  0  0  0  0  0  0  0  0  0  0
   -2.7483  -17.1895   -9.2750 C   0  0  0  0  0  0  0  0  0  0  0  0
   -1.6943  -17.9001   -8.9858 N   0  0  0  0  0  0  0  0  0  0  0  0
   -5.5082  -17.3917   -9.3193 C   0  0  0  0  0  0  0  0  0  0  0  0
   -7.5778  -16.4497   -8.7094 C   0  0  0  0  0  0  0  0  0  0  0  0
   -6.8428  -17.4619   -9.3450 C   0  0  0  0  0  0  0  0  0  0  0  0
   -3.1620  -17.1690  -10.5079 C   0  0  0  0  0  0  0  0  0  0  0  0
   -2.6090  -19.6070  -13.3761 C   0  0  0  0  0  0  0  0  0  0  0  0
   -1.9013  -19.9445  -12.1318 C   0  0  0  0  0  0  0  0  0  0  0  0
   -2.4342  -17.7349  -15.0502 O   0  0  0  0  0  0  0  0  0  0  0  0
   -2.8870  -15.9996  -13.0566 O   0  0  0  0  0  0  0  0  0  0  0  0
   -5.5815  -15.3158   -8.1065 C   0  0  0  0  0  0  0  0  0  0  0  0
   -2.6312  -17.7347  -11.5273 C   0  0  0  0  0  0  0  0  0  0  0  0
   -3.4623  -16.3736   -8.3473 N   0  0  0  0  0  0  0  0  0  0  0  0
   -1.8899  -18.7727  -11.2003 C   0  0  0  0  0  0  0  0  0  0  0  0
   -4.8676  -16.3679   -8.6752 C   0  0  0  0  0  0  0  0  0  0  0  0
   -0.3621  -21.7016  -11.3966 C   0  0  0  0  0  0  0  0  0  0  0  0
   -0.1948  -19.7971   -9.7064 C   0  0  0  0  0  0  0  0  0  0  0  0
    0.4770  -21.0628  -10.2442 C   0  0  0  0  0  0  0  0  0  0  0  0
  1  3  1  0
  1 15  1  0
  2 10  2  0
  2 17  1  0
  3 16  2  0
  3 18  1  0
  4  5  1  0
  4 14  1  0
  4 22  1  0
  6  8  1  0
  6 20  1  0
  6 23  1  0
  7  8  1  0
  7 12  2  0
  7 19  1  0
  9 11  2  0
  9 21  1  0
 10 11  1  0
 12 18  1  0
 13 14  1  0
 14 20  1  0
 17 21  2  0
 18 20  1  0
 19 21  1  0
 22 24  1  0
 23 24  1  0
M  END
>  <ID>  (1) 
conformer_0

$$$$
