
     RDKit          3D

 13 12  0  0  0  0  0  0  0  0999 V2000
   -6.3545  -16.9076   -9.0964 C   0  0  0  0  0  0  0  0  0  0  0  0
   -2.6381  -16.0527  -12.8079 O   0  0  0  0  0  0  0  0  0  0  0  0
   -3.9749  -16.3729   -8.9225 C   0  0  0  0  0  0  0  0  0  0  0  0
   -3.1950  -19.8239  -11.5912 C   0  0  0  0  0  0  0  0  0  0  0  0
   -6.4547  -15.0395   -7.5932 F   0  0  0  0  0  0  0  0  0  0  0  0
   -3.1963  -17.9335  -14.2053 O   0  0  0  0  0  0  0  0  0  0  0  0
   -8.3659  -15.6913   -8.6208 F   0  0  0  0  0  0  0  0  0  0  0  0
   -1.1432  -18.1003  -12.9484 O   0  0  0  0  0  0  0  0  0  0  0  0
   -5.0925  -16.8917   -9.6807 C   0  0  0  0  0  0  0  0  0  0  0  0
   -4.6678  -17.6653  -10.8589 C   0  0  0  0  0  0  0  0  0  0  0  0
   -3.3880  -18.1850  -11.4559 C   0  0  0  0  0  0  0  0  0  0  0  0
   -7.0288  -15.7741   -8.5193 C   0  0  0  0  0  0  0  0  0  0  0  0
   -2.5628  -17.5315  -12.9775 S   0  0  0  0  0  4  0  0  0  0  0  0
  1  9  1  0
  1 12  1  0
  2 13  1  0
  3  9  1  0
  4 11  1  0
  5 12  1  0
  6 13  1  0
  7 12  1  0
  8 13  1  0
  9 10  1  0
 10 11  1  0
 11 13  1  0
M  END
>  <ID>  (1) 
conformer_0

$$$$
