
     RDKit          3D

 30 32  0  0  0  0  0  0  0  0999 V2000
   -5.9809  -15.7136   -8.6511 C   0  0  0  0  0  0  0  0  0  0  0  0
   -1.8980  -17.3156  -14.3889 C   0  0  0  0  0  0  0  0  0  0  0  0
   -2.2628  -19.5180  -13.0175 F   0  0  0  0  0  0  0  0  0  0  0  0
   -2.3145  -22.7399  -13.5666 C   0  0  0  0  0  0  0  0  0  0  0  0
   -8.1290  -16.1449   -8.3450 O   0  0  0  0  0  0  0  0  0  0  0  0
   -2.9176  -15.8798  -12.7772 O   0  0  0  0  0  0  0  0  0  0  0  0
   -2.5887  -18.2638  -10.9857 C   0  0  0  0  0  0  0  0  0  0  0  0
   -1.5088  -19.0771  -10.8016 C   0  0  0  0  0  0  0  0  0  0  0  0
   -7.8079  -14.8740   -7.8709 C   0  0  0  0  0  0  0  0  0  0  0  0
   -0.0886  -22.9152  -12.5556 O   0  0  0  0  0  0  0  0  0  0  0  0
   -6.6624  -17.9123   -9.3078 C   0  0  0  0  0  0  0  0  0  0  0  0
   -8.6101  -14.0205   -7.2172 F   0  0  0  0  0  0  0  0  0  0  0  0
   -1.6181  -21.4373  -11.5834 C   0  0  0  0  0  0  0  0  0  0  0  0
   -2.8002  -17.1309  -13.2156 C   0  0  0  0  0  0  0  0  0  0  0  0
   -3.0646  -18.3120  -12.3934 C   0  0  0  0  0  0  0  0  0  0  0  0
   -1.0044  -17.9993   -8.7030 C   0  0  0  0  0  0  0  0  0  0  0  0
   -2.1307  -17.2670   -8.8276 C   0  0  0  0  0  0  0  0  0  0  0  0
   -6.4602  -14.5878   -8.0510 C   0  0  0  0  0  0  0  0  0  0  0  0
   -3.0399  -17.5595   -9.8583 C   0  0  0  0  0  0  0  0  0  0  0  0
   -0.1173  -20.8497   -8.5057 O   0  0  0  0  0  0  0  0  0  0  0  0
    0.4503  -19.7780   -9.3646 C   0  0  0  0  0  0  0  0  0  0  0  0
   -1.3438  -20.0160  -11.9281 C   0  0  0  0  0  0  0  0  0  0  0  0
   -4.3973  -17.1963   -9.5683 C   0  0  0  0  0  0  0  0  0  0  0  0
   -2.5001  -17.6686  -15.4560 O   0  0  0  0  0  0  0  0  0  0  0  0
   -0.6235  -17.6215  -14.1775 F   0  0  0  0  0  0  0  0  0  0  0  0
   -5.3734  -18.1792   -9.7277 C   0  0  0  0  0  0  0  0  0  0  0  0
   -0.6840  -18.9450   -9.6731 C   0  0  0  0  0  0  0  0  0  0  0  0
   -1.2457  -22.4077  -12.6487 C   0  0  0  0  0  0  0  0  0  0  0  0
   -6.9179  -16.6798   -8.7994 C   0  0  0  0  0  0  0  0  0  0  0  0
   -4.7178  -15.9177   -9.0947 C   0  0  0  0  0  0  0  0  0  0  0  0
  1 18  1  0
  1 29  2  0
  1 30  1  0
  2 14  1  0
  2 24  2  0
  2 25  1  0
  3 22  1  0
  4 28  1  0
  5  9  1  0
  5 29  1  0
  6 14  1  0
  7  8  1  0
  7 15  1  0
  7 19  1  0
  8 22  1  0
  8 27  2  0
  9 12  1  0
  9 18  1  0
 10 28  2  0
 11 26  2  0
 11 29  1  0
 13 22  1  0
 13 28  1  0
 14 15  1  0
 16 17  2  0
 16 27  1  0
 17 19  1  0
 19 23  1  0
 20 21  1  0
 21 27  1  0
 23 26  1  0
 23 30  2  0
M  END
>  <ID>  (1) 
conformer_0

$$$$
