
     RDKit          3D

 17 18  0  0  0  0  0  0  0  0999 V2000
   -0.6982  -18.6350  -12.1949 O   0  0  0  0  0  0  0  0  0  0  0  0
   -6.8250  -17.5751   -9.1478 C   0  0  0  0  0  0  0  0  0  0  0  0
   -1.9509  -17.7820  -13.9979 N   0  0  0  0  0  0  0  0  0  0  0  0
   -3.0550  -19.3348  -10.4784 C   0  0  0  0  0  0  0  0  0  0  0  0
   -3.1171  -17.1315   -9.4417 C   0  0  0  0  0  0  0  0  0  0  0  0
   -4.9291  -15.5770   -8.7960 C   0  0  0  0  0  0  0  0  0  0  0  0
   -8.4477  -16.1054   -8.3434 F   0  0  0  0  0  0  0  0  0  0  0  0
   -2.8563  -17.8888  -10.5886 C   0  0  0  0  0  0  0  0  0  0  0  0
   -3.0541  -16.9736  -14.1357 O   0  0  0  0  0  0  0  0  0  0  0  0
   -1.7015  -18.0926  -12.7412 C   0  0  0  0  0  0  0  0  0  0  0  0
   -2.6282  -17.3344  -11.9015 C   0  0  0  0  0  0  0  0  0  0  0  0
   -2.2064  -16.8534   -8.6112 O   0  0  0  0  0  0  0  0  0  0  0  0
   -5.4851  -17.8056   -9.4145 C   0  0  0  0  0  0  0  0  0  0  0  0
   -7.1866  -16.3584   -8.6612 C   0  0  0  0  0  0  0  0  0  0  0  0
   -3.5076  -16.7072  -12.8562 C   0  0  0  0  0  0  0  0  0  0  0  0
   -4.5280  -16.8502   -9.2035 C   0  0  0  0  0  0  0  0  0  0  0  0
   -6.2710  -15.3581   -8.4886 C   0  0  0  0  0  0  0  0  0  0  0  0
  1 10  2  0
  2 13  2  0
  2 14  1  0
  3  9  1  0
  3 10  1  0
  4  8  1  0
  5  8  1  0
  5 12  2  0
  5 16  1  0
  6 16  2  0
  6 17  1  0
  7 14  1  0
  8 11  1  0
  9 15  1  0
 10 11  1  0
 11 15  1  0
 13 16  1  0
 14 17  2  0
M  END
>  <ID>  (1) 
conformer_0

$$$$
