
     RDKit          3D

 30 31  0  0  0  0  0  0  0  0999 V2000
   -7.8116  -15.7669   -8.3940 C   0  0  0  0  0  0  0  0  0  0  0  0
    0.1444  -18.8565   -8.9573 C   0  0  0  0  0  0  0  0  0  0  0  0
   -1.2083  -17.5924   -7.0301 F   0  0  0  0  0  0  0  0  0  0  0  0
   -1.0974  -18.3255   -8.0935 C   0  0  0  0  0  0  0  0  0  0  0  0
   -2.3346  -17.4377  -13.4180 S   0  0  0  0  0  4  0  0  0  0  0  0
    2.0649  -22.2296  -11.6062 C   0  0  0  0  0  0  0  0  0  0  0  0
   -0.1819  -20.1402   -9.6219 C   0  0  0  0  0  0  0  0  0  0  0  0
   -5.2889  -16.5886   -9.4703 C   0  0  0  0  0  0  0  0  0  0  0  0
   -0.5008  -20.7961  -11.9811 C   0  0  0  0  0  0  0  0  0  0  0  0
   -5.4999  -15.2954   -8.9380 N   0  0  0  0  0  0  0  0  0  0  0  0
    1.6125  -21.0113  -10.8677 C   0  0  0  0  0  0  0  0  0  0  0  0
   -2.9961  -17.5780  -11.9598 C   0  0  0  0  0  0  0  0  0  0  0  0
   -6.3498  -17.4776   -9.2542 C   0  0  0  0  0  0  0  0  0  0  0  0
    3.4143  -22.3339  -11.6545 C   0  0  0  0  0  0  0  0  0  0  0  0
   -0.8443  -20.9661   -8.9707 F   0  0  0  0  0  0  0  0  0  0  0  0
   -0.6179  -22.1677  -13.9849 O   0  0  0  0  0  0  0  0  0  0  0  0
   -1.2676  -19.5095   -7.1043 F   0  0  0  0  0  0  0  0  0  0  0  0
    0.2636  -20.4689  -10.8120 N   0  0  0  0  0  0  0  0  0  0  0  0
   -2.8999  -17.0946   -9.1873 C   0  0  0  0  0  0  0  0  0  0  0  0
   -2.9788  -17.8912  -14.5843 O   0  0  0  0  0  1  0  0  0  0  0  0
   -6.7641  -14.9025   -8.4581 C   0  0  0  0  0  0  0  0  0  0  0  0
   -0.9921  -19.7265  -12.6617 O   0  0  0  0  0  0  0  0  0  0  0  0
   -0.6328  -22.0353  -12.7076 C   0  0  0  0  0  0  0  0  0  0  0  0
    1.4146  -23.2664  -11.8504 O   0  0  0  0  0  0  0  0  0  0  0  0
   -0.9818  -18.4881  -13.2668 N   0  0  0  0  0  0  0  0  0  0  0  0
   -4.0296  -16.9756   -9.9958 C   0  0  0  0  0  0  0  0  0  0  0  0
   -1.9498  -17.6475   -9.0892 C   0  0  0  0  0  0  0  0  0  0  0  0
   -7.5446  -17.0518   -8.7791 C   0  0  0  0  0  0  0  0  0  0  0  0
   -3.8479  -17.2964  -11.3857 C   0  0  0  0  0  0  0  0  0  0  0  0
   -2.2109  -16.0020  -13.4819 O   0  0  0  0  0  1  0  0  0  0  0  0
  1 21  2  0
  1 28  1  0
  2  4  1  0
  2  7  1  0
  3  4  1  0
  4 17  1  0
  4 27  1  0
  5 12  1  0
  5 20  1  0
  5 25  1  0
  5 30  1  0
  6 11  1  0
  6 14  1  0
  6 24  2  0
  7 15  1  0
  7 18  1  0
  8 10  2  0
  8 13  1  0
  8 26  1  0
  9 18  1  0
  9 22  1  0
  9 23  1  0
 10 21  1  0
 11 18  1  0
 12 29  1  0
 13 28  2  0
 16 23  2  0
 19 26  1  0
 19 27  1  0
 22 25  1  0
 26 29  2  0
M  END
>  <ID>  (1) 
conformer_0

$$$$
