
     RDKit          3D

 17 17  0  0  0  0  0  0  0  0999 V2000
   -2.8149  -16.9826   -8.4635 O   0  0  0  0  0  0  0  0  0  0  0  0
   -2.6439  -15.5971  -13.0277 O   0  0  0  0  0  0  0  0  0  0  0  0
   -2.4938  -19.5108  -10.8899 O   0  0  0  0  0  0  0  0  0  0  0  0
   -3.5888  -16.3061  -12.4029 C   0  0  0  0  0  0  0  0  0  0  0  0
   -5.2315  -18.2536  -10.1813 C   0  0  0  0  0  0  0  0  0  0  0  0
   -2.2402  -17.9741  -14.2438 O   0  0  0  0  0  0  0  0  0  0  0  0
   -6.3096  -16.1969   -8.5099 C   0  0  0  0  0  0  0  0  0  0  0  0
   -2.6776  -18.8814  -13.3159 C   0  0  0  0  0  0  0  0  0  0  0  0
   -4.1895  -17.3868  -10.2544 C   0  0  0  0  0  0  0  0  0  0  0  0
   -5.0316  -15.9533   -8.6432 C   0  0  0  0  0  0  0  0  0  0  0  0
   -6.4646  -18.2855   -9.6554 C   0  0  0  0  0  0  0  0  0  0  0  0
   -3.1489  -15.2646   -9.7537 O   0  0  0  0  0  0  0  0  0  0  0  0
   -6.9315  -15.1799   -7.8650 F   0  0  0  0  0  0  0  0  0  0  0  0
   -3.0278  -18.7160  -11.9536 C   0  0  0  0  0  0  0  0  0  0  0  0
   -3.2239  -17.3207  -11.4231 C   0  0  0  0  0  0  0  0  0  0  0  0
   -7.0369  -17.2770   -8.8732 C   0  0  0  0  0  0  0  0  0  0  0  0
   -3.7506  -16.3740   -9.2321 C   0  0  0  0  0  0  0  0  0  0  0  0
  1 17  1  0
  2  4  1  0
  3 14  1  0
  4 15  1  0
  5  9  1  0
  5 11  2  0
  6  8  1  0
  7 10  2  0
  7 13  1  0
  7 16  1  0
  8 14  1  0
  9 15  1  0
  9 17  1  0
 10 17  1  0
 11 16  1  0
 12 17  1  0
 14 15  1  0
M  END
>  <ID>  (1) 
conformer_0

$$$$
