
     RDKit          3D

 22 23  0  0  0  0  0  0  0  0999 V2000
   -0.9684  -19.1914  -10.0209 C   0  0  0  0  0  0  0  0  0  0  0  0
   -5.8971  -17.7622   -9.2354 C   0  0  0  0  0  0  0  0  0  0  0  0
   -7.1858  -17.5454   -8.8849 C   0  0  0  0  0  0  0  0  0  0  0  0
   -3.2915  -18.3362  -10.1837 N   0  0  0  0  0  0  0  0  0  0  0  0
   -0.1923  -18.1276   -9.3252 O   0  0  0  0  0  0  0  0  0  0  0  0
   -2.0637  -18.6301  -10.8077 C   0  0  0  0  0  0  0  0  0  0  0  0
   -8.4622  -13.6780   -6.9212 C   0  0  0  0  0  0  0  0  0  0  0  0
   -7.8846  -16.4924   -8.5291 C   0  0  0  0  0  0  0  0  0  0  0  0
   -2.6036  -16.4086   -9.2620 O   0  0  0  0  0  0  0  0  0  0  0  0
   -1.8713  -18.2849  -12.2169 C   0  0  0  0  0  0  0  0  0  0  0  0
   -7.4969  -15.1780   -8.3799 C   0  0  0  0  0  0  0  0  0  0  0  0
    0.4292  -18.5861  -15.0414 O   0  0  0  0  0  0  0  0  0  0  0  0
   -2.8320  -17.4000  -14.2534 C   0  0  0  0  0  0  0  0  0  0  0  0
   -5.1420  -15.5016   -8.8925 C   0  0  0  0  0  0  0  0  0  0  0  0
   -0.6395  -18.2637  -14.3283 C   0  0  0  0  0  0  0  0  0  0  0  0
   -0.7065  -18.5551  -12.9594 C   0  0  0  0  0  0  0  0  0  0  0  0
   -3.5396  -17.1804   -9.5230 C   0  0  0  0  0  0  0  0  0  0  0  0
   -6.1518  -14.8146   -8.4833 C   0  0  0  0  0  0  0  0  0  0  0  0
   -8.4046  -14.2171   -8.2084 O   0  0  0  0  0  0  0  0  0  0  0  0
   -4.8981  -16.8021   -9.2014 C   0  0  0  0  0  0  0  0  0  0  0  0
   -1.7055  -17.6676  -14.9787 C   0  0  0  0  0  0  0  0  0  0  0  0
   -2.9334  -17.6791  -12.8974 C   0  0  0  0  0  0  0  0  0  0  0  0
  1  5  1  0
  1  6  1  0
  2  3  1  0
  2 20  2  0
  3  8  2  0
  4  6  1  0
  4 17  1  0
  6 10  1  0
  7 19  1  0
  8 11  1  0
  9 17  2  0
 10 16  1  0
 10 22  2  0
 11 18  1  0
 11 19  1  0
 12 15  1  0
 13 21  2  0
 13 22  1  0
 14 18  2  0
 14 20  1  0
 15 16  2  0
 15 21  1  0
 17 20  1  0
M  END
>  <ID>  (1) 
conformer_0

$$$$
