
     RDKit          3D

 30 32  0  0  0  0  0  0  0  0999 V2000
   -2.5630  -16.4222  -13.0329 C   0  0  0  0  0  0  0  0  0  0  0  0
   -1.1093  -20.1544  -12.6603 C   0  0  0  0  0  0  0  0  0  0  0  0
   -6.1475  -16.8617  -10.0978 F   0  0  0  0  0  0  0  0  0  0  0  0
   -2.1537  -17.7941  -13.6224 C   0  0  0  0  0  0  0  0  0  0  0  0
   -2.9841  -16.2566  -11.6694 C   0  0  0  0  0  0  0  0  0  0  0  0
   -4.3232  -18.6593   -9.2912 F   0  0  0  0  0  0  0  0  0  0  0  0
   -4.3362  -16.1244   -9.7245 C   0  0  0  0  0  0  0  0  0  0  0  0
   -0.1044  -19.6470  -10.5370 C   0  0  0  0  0  0  0  0  0  0  0  0
    1.2635  -22.1405  -10.7446 O   0  0  0  0  0  0  0  0  0  0  0  0
   -0.3602  -20.6216  -11.5548 C   0  0  0  0  0  0  0  0  0  0  0  0
   -3.6298  -17.4908   -9.7072 C   0  0  0  0  0  0  0  0  0  0  0  0
   -4.1685  -15.7901  -11.1112 C   0  0  0  0  0  0  0  0  0  0  0  0
    0.0866  -22.0046  -11.1838 C   0  0  0  0  0  0  0  0  0  0  0  0
   -1.7450  -18.1652  -11.3514 C   0  0  0  0  0  0  0  0  0  0  0  0
   -3.8273  -15.0831   -9.0026 F   0  0  0  0  0  0  0  0  0  0  0  0
   -3.0311  -17.5950  -11.0627 C   0  0  0  0  0  0  0  0  0  0  0  0
   -3.9820  -18.4849  -11.7786 C   0  0  0  0  0  0  0  0  0  0  0  0
   -1.5282  -18.7558  -12.6950 C   0  0  0  0  0  0  0  0  0  0  0  0
   -7.3911  -14.9599   -8.8970 C   0  0  0  0  0  0  0  0  0  0  0  0
   -0.8400  -23.0515  -11.2102 C   0  0  0  0  0  0  0  0  0  0  0  0
   -5.4374  -16.3540   -8.9439 C   0  0  0  0  0  0  0  0  0  0  0  0
   -6.0280  -14.9628   -7.1593 F   0  0  0  0  0  0  0  0  0  0  0  0
   -1.3855  -18.7551  -10.2524 C   0  0  0  0  0  0  0  0  0  0  0  0
   -2.3734  -18.0324  -14.7985 O   0  0  0  0  0  0  0  0  0  0  0  0
   -7.0821  -16.9116   -7.8910 F   0  0  0  0  0  0  0  0  0  0  0  0
   -4.7890  -16.9161   -7.6743 F   0  0  0  0  0  0  0  0  0  0  0  0
   -6.4444  -15.6563   -8.1879 C   0  0  0  0  0  0  0  0  0  0  0  0
    0.4449  -19.9962   -9.3112 C   0  0  0  0  0  0  0  0  0  0  0  0
   -2.0955  -21.1218  -13.2560 C   0  0  0  0  0  0  0  0  0  0  0  0
   -4.7728  -14.7011  -11.5473 F   0  0  0  0  0  0  0  0  0  0  0  0
  1  4  1  0
  1  5  1  0
  2 10  1  0
  2 18  1  0
  2 29  1  0
  3 21  1  0
  4 18  1  0
  4 24  2  0
  5 12  1  0
  5 16  1  0
  6 11  1  0
  7 11  1  0
  7 12  1  0
  7 15  1  0
  7 21  1  0
  8 10  1  0
  8 23  1  0
  8 28  1  0
  9 13  2  0
 10 13  1  0
 11 16  1  0
 12 30  1  0
 13 20  1  0
 14 16  1  0
 14 18  1  0
 14 23  1  0
 16 17  1  0
 19 27  1  0
 21 26  1  0
 21 27  1  0
 22 27  1  0
 25 27  1  0
M  END
>  <ID>  (1) 
conformer_0

$$$$
