
     RDKit          3D

 12 12  0  0  0  0  0  0  0  0999 V2000
   -7.3365  -16.5700   -8.8008 C   0  0  0  0  0  0  0  0  0  0  0  0
   -7.2407  -15.1270   -8.4305 C   0  0  0  0  0  0  0  0  0  0  0  0
   -3.7456  -16.9379   -9.4153 C   0  0  0  0  0  0  0  0  0  0  0  0
   -2.6807  -16.2133  -13.3567 N   0  0  0  0  0  0  0  0  0  0  0  0
   -2.8342  -18.3907  -12.8048 C   0  0  0  0  0  0  0  0  0  0  0  0
   -2.6655  -17.4873  -13.9045 C   0  0  0  0  0  0  0  0  0  0  0  0
   -6.0604  -17.2838   -9.0590 C   0  0  0  0  0  0  0  0  0  0  0  0
   -2.6162  -16.6683   -8.9859 O   0  0  0  0  0  0  0  0  0  0  0  0
   -3.3029  -16.2497  -12.0921 C   0  0  0  0  0  0  0  0  0  0  0  0
   -3.9221  -17.9542  -10.4465 C   0  0  0  0  0  0  0  0  0  0  0  0
   -4.9419  -16.3585   -8.9845 O   0  0  0  0  0  0  0  0  0  0  0  0
   -3.1375  -17.6188  -11.6613 C   0  0  0  0  0  0  0  0  0  0  0  0
  1  2  1  0
  1  7  1  0
  3  8  2  0
  3 10  1  0
  3 11  1  0
  4  6  1  0
  4  9  1  0
  5  6  1  0
  5 12  1  0
  7 11  1  0
  9 12  1  0
 10 12  1  0
M  END
>  <ID>  (1) 
conformer_0

$$$$
