
     RDKit          3D

 14 14  0  0  0  0  0  0  0  0999 V2000
   -6.7154  -16.4543   -8.8545 C   0  0  0  0  0  0  0  0  0  0  0  0
   -2.5770  -16.9122   -8.7422 C   0  0  0  0  0  0  0  0  0  0  0  0
   -3.9035  -16.7248   -8.8312 C   0  0  0  0  0  0  0  0  0  0  0  0
   -2.6687  -17.4936  -13.4627 C   0  0  0  0  0  0  0  0  0  0  0  0
   -2.1056  -18.3341  -12.2991 C   0  0  0  0  0  0  0  0  0  0  0  0
   -2.7307  -17.9152  -10.9697 C   0  0  0  0  0  0  0  0  0  0  0  0
   -4.0762  -17.8000  -10.9063 C   0  0  0  0  0  0  0  0  0  0  0  0
   -3.2743  -16.4059  -13.2351 O   0  0  0  0  0  0  0  0  0  0  0  0
   -5.9403  -15.7421   -8.1004 C   0  0  0  0  0  0  0  0  0  0  0  0
   -1.9833  -17.6027   -9.8272 C   0  0  0  0  0  0  0  0  0  0  0  0
   -6.0942  -17.2170   -9.7612 C   0  0  0  0  0  0  0  0  0  0  0  0
   -4.6860  -17.2329   -9.8335 C   0  0  0  0  0  0  0  0  0  0  0  0
   -2.3533  -17.7977  -14.6599 O   0  0  0  0  0  0  0  0  0  0  0  0
   -8.0129  -16.3500   -8.6598 F   0  0  0  0  0  0  0  0  0  0  0  0
  1  9  2  0
  1 11  1  0
  1 14  1  0
  2  3  2  0
  2 10  1  0
  3 12  1  0
  4  5  1  0
  4  8  2  0
  4 13  1  0
  5  6  1  0
  6  7  2  0
  6 10  1  0
  7 12  1  0
 11 12  2  3
M  END
>  <ID>  (1) 
conformer_0

$$$$
