
     RDKit          3D

 24 26  0  0  0  0  0  0  0  0999 V2000
   -2.9221  -17.4036   -9.9446 C   0  0  0  0  0  0  0  0  0  0  0  0
   -0.3629  -19.1352  -12.1568 C   0  0  0  0  0  0  0  0  0  0  0  0
   -2.8385  -16.0628  -12.6759 O   0  0  0  0  0  0  0  0  0  0  0  0
   -3.6737  -16.1543   -9.9433 C   0  0  0  0  0  0  0  0  0  0  0  0
   -5.7506  -17.4036   -9.3049 C   0  0  0  0  0  0  0  0  0  0  0  0
   -5.5971  -15.0381   -8.8707 C   0  0  0  0  0  0  0  0  0  0  0  0
   -5.2172  -18.6437   -9.6868 F   0  0  0  0  0  0  0  0  0  0  0  0
   -6.8773  -15.1099   -8.3859 C   0  0  0  0  0  0  0  0  0  0  0  0
   -2.4554  -17.2439  -12.4734 C   0  0  0  0  0  0  0  0  0  0  0  0
   -2.0604  -17.4634   -8.8023 C   0  0  0  0  0  0  0  0  0  0  0  0
   -2.9309  -19.3192  -13.4711 O   0  0  0  0  0  0  0  0  0  0  0  0
   -0.8616  -18.0815   -9.0234 O   0  0  0  0  0  0  0  0  0  0  0  0
   -1.0279  -19.2101   -9.7735 C   0  0  0  0  0  0  0  0  0  0  0  0
   -5.0284  -16.2050   -9.3396 C   0  0  0  0  0  0  0  0  0  0  0  0
   -0.6845  -18.5344  -13.4417 C   0  0  0  0  0  0  0  0  0  0  0  0
   -0.2575  -20.4106   -9.5826 C   0  0  0  0  0  0  0  0  0  0  0  0
   -2.0872  -18.1854  -13.5822 C   0  0  0  0  0  0  0  0  0  0  0  0
   -0.0540  -18.9233  -14.5703 O   0  0  0  0  0  0  0  0  0  0  0  0
   -7.0232  -17.4330   -8.8854 C   0  0  0  0  0  0  0  0  0  0  0  0
    0.9194  -20.6431  -10.2181 O   0  0  0  0  0  0  0  0  0  0  0  0
   -2.3183  -17.6205  -14.9530 C   0  0  0  0  0  0  0  0  0  0  0  0
   -1.3452  -18.8576  -11.1087 C   0  0  0  0  0  0  0  0  0  0  0  0
   -2.2339  -17.7472  -11.1428 C   0  0  0  0  0  0  0  0  0  0  0  0
   -7.6089  -16.2473   -8.4198 C   0  0  0  0  0  0  0  0  0  0  0  0
  1  4  1  0
  1 10  1  0
  1 23  1  0
  2 15  1  0
  2 22  1  0
  3  9  2  0
  4 14  1  0
  5  7  1  0
  5 14  2  0
  5 19  1  0
  6  8  2  0
  6 14  1  0
  8 24  1  0
  9 17  1  0
  9 23  1  0
 10 12  1  0
 11 17  1  0
 12 13  1  0
 13 16  1  0
 13 22  1  0
 15 17  1  0
 15 18  1  0
 16 20  1  0
 17 21  1  0
 19 24  2  0
 22 23  1  0
M  END
>  <ID>  (1) 
conformer_0

$$$$
