
     RDKit          3D

 25 26  0  0  0  0  0  0  0  0999 V2000
   -2.8164  -17.7464  -12.5169 C   0  0  0  0  0  0  0  0  0  0  0  0
   -3.6021  -16.8322  -13.0725 O   0  0  0  0  0  0  0  0  0  0  0  0
    0.2620  -21.0038  -11.9468 C   0  0  0  0  0  0  0  0  0  0  0  0
   -1.6055  -18.1114  -10.3460 C   0  0  0  0  0  0  0  0  0  0  0  0
   -1.7441  -18.2284  -13.3636 C   0  0  0  0  0  0  0  0  0  0  0  0
   -0.5736  -19.0420  -10.6888 C   0  0  0  0  0  0  0  0  0  0  0  0
   -6.0441  -16.1033   -8.9309 C   0  0  0  0  0  0  0  0  0  0  0  0
   -1.4475  -17.5048   -9.1587 O   0  0  0  0  0  0  0  0  0  0  0  0
   -0.4217  -19.7531  -11.8596 N   0  0  0  0  0  0  0  0  0  0  0  0
   -4.8952  -15.3495   -9.0909 C   0  0  0  0  0  0  0  0  0  0  0  0
   -4.9426  -17.9502  -10.1148 C   0  0  0  0  0  0  0  0  0  0  0  0
   -0.6268  -19.0991  -13.1168 C   0  0  0  0  0  0  0  0  0  0  0  0
   -0.6699  -20.2550   -8.6338 O   0  0  0  0  0  0  0  0  0  0  0  0
   -1.8160  -17.7267  -14.6541 O   0  0  0  0  0  0  0  0  0  0  0  0
   -7.8094  -14.3115   -8.6666 F   0  0  0  0  0  0  0  0  0  0  0  0
   -3.8139  -17.1731  -10.3470 C   0  0  0  0  0  0  0  0  0  0  0  0
    0.7805  -21.6361  -10.9432 O   0  0  0  0  0  0  0  0  0  0  0  0
    0.4422  -21.5076  -13.1221 O   0  0  0  0  0  0  0  0  0  0  0  0
   -3.8356  -15.8813   -9.7769 C   0  0  0  0  0  0  0  0  0  0  0  0
   -6.0554  -17.3963   -9.4527 C   0  0  0  0  0  0  0  0  0  0  0  0
   -8.1285  -16.3610   -8.1121 O   0  0  0  0  0  0  0  0  0  0  0  0
   -6.6249  -14.9558   -7.0366 F   0  0  0  0  0  0  0  0  0  0  0  0
   -7.1845  -15.4397   -8.1956 C   0  0  0  0  0  0  0  0  0  0  0  0
    0.1516  -19.5202   -9.4852 C   0  0  0  0  0  0  0  0  0  0  0  0
   -2.7263  -17.6756  -11.1256 C   0  0  0  0  0  0  0  0  0  0  0  0
  1  2  1  0
  1  5  1  0
  1 25  1  0
  3  9  1  0
  3 17  2  0
  3 18  1  0
  4  6  1  0
  4  8  1  0
  4 25  1  0
  5 12  2  0
  5 14  1  0
  6  9  1  0
  6 24  1  0
  7 10  2  0
  7 20  1  0
  7 23  1  0
  9 12  1  0
 10 19  1  0
 11 16  1  0
 11 20  2  0
 13 24  1  0
 15 23  1  0
 16 19  2  0
 16 25  1  0
 21 23  1  0
 22 23  1  0
M  END
>  <ID>  (1) 
conformer_0

$$$$
