
     RDKit          3D

 13 12  0  0  0  0  0  0  0  0999 V2000
   -4.0872  -18.3025  -11.6508 C   0  0  0  0  0  0  0  0  0  0  0  0
   -2.7257  -17.9221  -12.0054 C   0  0  0  0  0  0  0  0  0  0  0  0
   -2.5397  -15.9199  -13.2548 O   0  0  0  0  0  0  0  0  0  0  0  0
   -7.7793  -15.8834   -8.3289 F   0  0  0  0  0  0  0  0  0  0  0  0
   -4.7189  -17.7845  -10.4511 C   0  0  0  0  0  0  0  0  0  0  0  0
   -5.5201  -16.0785   -7.9223 C   0  0  0  0  0  0  0  0  0  0  0  0
   -2.6412  -17.1939  -13.3464 C   0  0  0  0  0  0  0  0  0  0  0  0
   -2.7233  -17.8375  -14.4038 O   0  0  0  0  0  0  0  0  0  0  0  0
   -6.8868  -17.8480   -8.8230 F   0  0  0  0  0  0  0  0  0  0  0  0
   -3.9644  -16.9609   -9.5069 C   0  0  0  0  0  0  0  0  0  0  0  0
   -6.5350  -15.9731  -10.0905 F   0  0  0  0  0  0  0  0  0  0  0  0
   -4.3138  -15.9385   -8.6113 C   0  0  0  0  0  0  0  0  0  0  0  0
   -6.6711  -16.4505   -8.8315 C   0  0  0  0  0  0  0  0  0  0  0  0
  1  2  1  0
  1  5  2  3
  2  7  1  0
  3  7  2  0
  4 13  1  0
  5 10  1  0
  6 12  1  0
  6 13  1  0
  7  8  1  0
  9 13  1  0
 10 12  1  0
 11 13  1  0
M  END
>  <ID>  (1) 
conformer_0

$$$$
