
     RDKit          3D

 15 15  0  0  0  0  0  0  0  0999 V2000
   -7.4253  -15.0880   -8.4647 C   0  0  0  0  0  0  0  0  0  0  0  0
   -1.3610  -18.2755   -9.7042 C   0  0  0  0  0  0  0  0  0  0  0  0
   -6.5736  -17.6151   -9.1033 C   0  0  0  0  0  0  0  0  0  0  0  0
   -2.1319  -17.8756  -11.9573 C   0  0  0  0  0  0  0  0  0  0  0  0
   -2.8455  -17.8106  -14.2825 O   0  0  0  0  0  0  0  0  0  0  0  0
   -1.8990  -18.0206  -13.4031 C   0  0  0  0  0  0  0  0  0  0  0  0
   -3.2036  -17.1948  -11.3790 C   0  0  0  0  0  0  0  0  0  0  0  0
   -0.7350  -18.3755  -13.8403 O   0  0  0  0  0  0  0  0  0  0  0  0
   -3.3397  -17.0587   -9.9863 C   0  0  0  0  0  0  0  0  0  0  0  0
   -4.2085  -16.6284  -12.1280 C   0  0  0  0  0  0  0  0  0  0  0  0
   -4.3919  -16.4633   -9.4598 N   0  0  0  0  0  0  0  0  0  0  0  0
   -6.0930  -15.4925   -8.1277 O   0  0  0  0  0  0  0  0  0  0  0  0
   -2.3714  -17.5493   -9.1562 C   0  0  0  0  0  0  0  0  0  0  0  0
   -5.5608  -16.5016   -8.9554 C   0  0  0  0  0  0  0  0  0  0  0  0
   -1.2458  -18.4565  -11.0690 C   0  0  0  0  0  0  0  0  0  0  0  0
  1 12  1  0
  2 13  1  0
  2 15  2  0
  3 14  1  0
  4  6  1  0
  4  7  1  0
  4 15  1  0
  5  6  2  0
  6  8  1  0
  7  9  1  0
  7 10  2  0
  9 11  1  0
  9 13  2  0
 11 14  1  0
 12 14  1  0
M  END
>  <ID>  (1) 
conformer_0

$$$$
