
     RDKit          3D

 26 28  0  0  0  0  0  0  0  0999 V2000
    0.5381  -20.6442  -11.6028 O   0  0  0  0  0  0  0  0  0  0  0  0
   -0.7153  -20.1522  -11.1823 C   0  0  0  0  0  0  0  0  0  0  0  0
   -2.4764  -17.6430  -14.6188 O   0  0  0  0  0  0  0  0  0  0  0  0
   -5.7520  -15.4663   -8.1885 C   0  0  0  0  0  0  0  0  0  0  0  0
   -1.4486  -17.2735   -8.6097 O   0  0  0  0  0  0  0  0  0  0  0  0
   -6.6388  -18.2152   -8.8105 C   0  0  0  0  0  0  0  0  0  0  0  0
   -3.5201  -16.9234  -11.4476 C   0  0  0  0  0  0  0  0  0  0  0  0
   -3.6902  -16.1161   -9.1995 C   0  0  0  0  0  0  0  0  0  0  0  0
   -7.1208  -15.1436   -8.1401 C   0  0  0  0  0  0  0  0  0  0  0  0
   -1.0651  -19.0867  -10.0987 C   0  0  0  0  0  0  0  0  0  0  0  0
   -1.8523  -17.7994   -9.8430 C   0  0  0  0  0  0  0  0  0  0  0  0
   -1.2148  -19.5669  -12.5241 C   0  0  0  0  0  0  0  0  0  0  0  0
   -3.1658  -17.1679  -10.0753 C   0  0  0  0  0  0  0  0  0  0  0  0
   -2.5087  -15.5810  -13.5961 O   0  0  0  0  0  0  0  0  0  0  0  0
   -1.1072  -21.8650  -12.8058 C   0  0  0  0  0  0  0  0  0  0  0  0
   -2.3555  -17.3688  -12.2831 C   0  0  0  0  0  0  0  0  0  0  0  0
    0.3132  -21.3688  -12.8714 C   0  0  0  0  0  0  0  0  0  0  0  0
   -1.8793  -20.6481  -13.1323 O   0  0  0  0  0  0  0  0  0  0  0  0
   -8.0436  -16.1440   -8.7198 C   0  0  0  0  0  0  0  0  0  0  0  0
   -5.1822  -16.2333   -9.2645 C   0  0  0  0  0  0  0  0  0  0  0  0
   -5.6343  -17.6262   -9.5849 C   0  0  0  0  0  0  0  0  0  0  0  0
   -2.3137  -18.7525  -12.0757 O   0  0  0  0  0  0  0  0  0  0  0  0
   -2.5280  -16.8687  -13.6452 C   0  0  0  0  0  0  0  0  0  0  0  0
   -7.5558  -14.3902   -7.1757 F   0  0  0  0  0  0  0  0  0  0  0  0
   -0.4866  -19.5977   -8.9375 O   0  0  0  0  0  0  0  0  0  0  0  0
   -7.7242  -17.5113   -8.2128 C   0  0  0  0  0  0  0  0  0  0  0  0
  1  2  1  0
  1 17  1  0
  2 10  1  0
  2 12  1  0
  3 23  2  0
  4  9  1  0
  4 20  1  0
  5 11  1  0
  6 21  1  0
  6 26  1  0
  7 13  1  0
  7 16  1  0
  8 13  1  0
  8 20  1  0
  9 19  1  0
  9 24  1  0
 10 11  1  0
 10 25  1  0
 11 13  1  0
 12 18  1  0
 12 22  1  0
 14 23  1  0
 15 17  1  0
 15 18  1  0
 16 22  1  0
 16 23  1  0
 19 26  1  0
 20 21  1  0
M  END
>  <ID>  (1) 
conformer_0

$$$$
