
     RDKit          3D

 32 37  0  0  0  0  0  0  0  0999 V2000
    1.8401  -20.7954  -11.3079 O   0  0  0  0  0  0  0  0  0  0  0  0
   -1.8254  -17.9280  -15.1988 O   0  0  0  0  0  0  0  0  0  0  0  0
   -4.3972  -15.4454  -11.8850 O   0  0  0  0  0  0  0  0  0  0  0  0
   -2.1309  -17.9605   -9.6821 C   0  0  0  0  0  0  0  0  0  0  0  0
   -6.6221  -17.3158   -8.6410 C   0  0  0  0  0  0  0  0  0  0  0  0
   -7.5573  -17.7028   -7.6420 C   0  0  0  0  0  0  0  0  0  0  0  0
   -6.6773  -14.8755   -6.6350 C   0  0  0  0  0  0  0  0  0  0  0  0
   -6.3773  -18.3643   -9.4878 N   0  0  0  0  0  0  0  0  0  0  0  0
   -6.0794  -16.0627   -8.6592 N   0  0  0  0  0  0  0  0  0  0  0  0
   -1.1837  -18.8163  -11.7592 C   0  0  0  0  0  0  0  0  0  0  0  0
   -2.8439  -17.1611  -11.8316 C   0  0  0  0  0  0  0  0  0  0  0  0
   -7.1838  -19.4685   -9.0464 C   0  0  0  0  0  0  0  0  0  0  0  0
    0.6007  -20.6244  -11.9777 C   0  0  0  0  0  0  0  0  0  0  0  0
   -7.5269  -13.8975   -6.0748 C   0  0  0  0  0  0  0  0  0  0  0  0
   -2.0494  -18.0009  -11.0903 C   0  0  0  0  0  0  0  0  0  0  0  0
    0.1728  -21.8704  -12.4739 O   0  0  0  0  0  0  0  0  0  0  0  0
   -8.7904  -13.6890   -8.1291 C   0  0  0  0  0  0  0  0  0  0  0  0
    0.2830  -19.6454  -13.4673 C   0  0  0  0  0  0  0  0  0  0  0  0
   -0.3228  -19.5958   -9.6680 C   0  0  0  0  0  0  0  0  0  0  0  0
   -3.1022  -17.1872   -9.0421 C   0  0  0  0  0  0  0  0  0  0  0  0
   -1.1903  -18.7407   -9.0081 O   0  0  0  0  0  0  0  0  0  0  0  0
   -3.9747  -16.4288   -9.7950 C   0  0  0  0  0  0  0  0  0  0  0  0
   -7.9380  -14.6038   -8.7518 C   0  0  0  0  0  0  0  0  0  0  0  0
   -2.7065  -17.1290  -13.2016 N   0  0  0  0  0  0  0  0  0  0  0  0
   -1.0524  -18.8622  -13.2175 C   0  0  0  0  0  0  0  0  0  0  0  0
   -1.8450  -17.9587  -13.9072 C   0  0  0  0  0  0  0  0  0  0  0  0
   -0.3222  -19.6614  -11.0616 C   0  0  0  0  0  0  0  0  0  0  0  0
   -5.0363  -15.6243   -9.3691 N   0  0  0  0  0  0  0  0  0  0  0  0
   -6.9046  -15.1437   -7.9865 C   0  0  0  0  0  0  0  0  0  0  0  0
   -7.9376  -19.0290   -7.9846 C   0  0  0  0  0  0  0  0  0  0  0  0
   -8.5798  -13.3803   -6.7721 C   0  0  0  0  0  0  0  0  0  0  0  0
   -3.7356  -16.3316  -11.2193 C   0  0  0  0  0  0  0  0  0  0  0  0
  1 13  1  0
  2 26  2  0
  3 32  1  0
  4 15  1  0
  4 20  1  0
  4 21  1  0
  5  6  1  0
  5  8  2  0
  5  9  1  0
  6 30  1  0
  7 14  1  0
  7 29  1  0
  8 12  1  0
  9 28  1  0
  9 29  1  0
 10 15  2  0
 10 25  1  0
 10 27  1  0
 11 15  1  0
 11 24  1  0
 11 32  2  0
 12 30  1  0
 13 16  1  0
 13 18  1  0
 13 27  1  0
 14 31  2  0
 17 23  1  0
 17 31  1  0
 18 25  1  0
 19 21  1  0
 19 27  2  0
 20 22  2  0
 22 28  1  0
 22 32  1  0
 23 29  2  0
 24 26  1  0
 25 26  1  0
M  END
>  <ID>  (1) 
conformer_0

$$$$
