
     RDKit          3D

 14 15  0  0  0  0  0  0  0  0999 V2000
   -2.7089  -19.2812  -13.1559 O   0  0  0  0  0  0  0  0  0  0  0  0
   -6.0448  -16.5935   -9.0880 C   0  0  0  0  0  0  0  0  0  0  0  0
   -3.3138  -18.2124  -11.0610 C   0  0  0  0  0  0  0  0  0  0  0  0
   -2.6768  -18.1100  -13.8706 C   0  0  0  0  0  0  0  0  0  0  0  0
   -4.8867  -16.1153   -8.5506 N   0  0  0  0  0  0  0  0  0  0  0  0
   -2.3101  -16.4827   -8.7368 Cl  0  0  0  0  0  0  0  0  0  0  0  0
   -2.8355  -16.9410  -12.9793 C   0  0  0  0  0  0  0  0  0  0  0  0
   -3.7783  -16.7374   -9.1706 C   0  0  0  0  0  0  0  0  0  0  0  0
   -2.4533  -17.1992  -11.6766 O   0  0  0  0  0  0  0  0  0  0  0  0
   -4.1917  -17.5894  -10.1569 C   0  0  0  0  0  0  0  0  0  0  0  0
   -3.3919  -19.3416  -11.8960 C   0  0  0  0  0  0  0  0  0  0  0  0
   -7.4208  -16.1363   -8.6981 C   0  0  0  0  0  0  0  0  0  0  0  0
   -5.6771  -17.6467  -10.1612 O   0  0  0  0  0  0  0  0  0  0  0  0
   -2.5822  -17.8826  -15.1779 O   0  0  0  0  0  0  0  0  0  0  0  0
  1  4  1  0
  1 11  1  0
  2  5  1  0
  2 12  1  0
  2 13  1  0
  3  9  1  0
  3 10  1  0
  3 11  1  0
  4  7  1  0
  4 14  2  0
  5  8  1  0
  6  8  1  0
  7  9  1  0
  8 10  2  0
 10 13  1  0
M  END
>  <ID>  (1) 
conformer_0

$$$$
