
     RDKit          3D

 30 33  0  0  0  0  0  0  0  0999 V2000
   -7.3994  -19.4154   -8.7531 C   0  0  0  0  0  0  0  0  0  0  0  0
   -3.7229  -16.0630  -12.0177 C   0  0  0  0  0  0  0  0  0  0  0  0
   -1.1177  -19.9132  -11.1521 C   0  0  0  0  0  0  0  0  0  0  0  0
   -2.3994  -17.3332  -15.0479 O   0  0  0  0  0  0  0  0  0  0  0  0
   -1.3585  -19.1250  -13.4323 C   0  0  0  0  0  0  0  0  0  0  0  0
   -5.2187  -15.2214   -9.0791 C   0  0  0  0  0  0  0  0  0  0  0  0
   -7.2070  -17.1091   -8.6358 C   0  0  0  0  0  0  0  0  0  0  0  0
   -2.6652  -17.2117  -13.7950 C   0  0  0  0  0  0  0  0  0  0  0  0
   -2.7446  -16.7717   -8.5952 C   0  0  0  0  0  0  0  0  0  0  0  0
   -3.6618  -16.8885   -9.7520 N   0  0  0  0  0  0  0  0  0  0  0  0
   -2.4672  -18.0056  -11.5664 C   0  0  0  0  0  0  0  0  0  0  0  0
   -1.9924  -18.9723  -10.6723 C   0  0  0  0  0  0  0  0  0  0  0  0
    1.8327  -23.5097  -10.7926 C   0  0  0  0  0  0  0  0  0  0  0  0
   -2.1581  -18.1392  -12.9171 C   0  0  0  0  0  0  0  0  0  0  0  0
   -7.3889  -15.7977   -8.2994 C   0  0  0  0  0  0  0  0  0  0  0  0
   -8.5654  -15.4694   -7.8082 F   0  0  0  0  0  0  0  0  0  0  0  0
   -3.2794  -16.9556  -11.1160 C   0  0  0  0  0  0  0  0  0  0  0  0
   -6.0727  -19.0136   -9.4608 C   0  0  0  0  0  0  0  0  0  0  0  0
   -1.3572  -17.1092   -8.6044 C   0  0  0  0  0  0  0  0  0  0  0  0
    0.0287  -21.9775  -10.6397 O   0  0  0  0  0  0  0  0  0  0  0  0
   -4.9979  -16.5277   -9.3910 C   0  0  0  0  0  0  0  0  0  0  0  0
   -0.4404  -20.7972  -10.2225 C   0  0  0  0  0  0  0  0  0  0  0  0
   -0.8522  -20.0163  -12.5230 C   0  0  0  0  0  0  0  0  0  0  0  0
    2.0620  -20.9839  -11.6188 C   0  0  0  0  0  0  0  0  0  0  0  0
    1.2704  -22.2229  -11.3372 C   0  0  0  0  0  0  0  0  0  0  0  0
   -6.0019  -17.5199   -9.2000 C   0  0  0  0  0  0  0  0  0  0  0  0
   -0.2375  -20.3840   -9.0399 O   0  0  0  0  0  0  0  0  0  0  0  0
   -3.4535  -16.1794  -13.3543 C   0  0  0  0  0  0  0  0  0  0  0  0
   -8.1224  -18.1192   -8.3833 O   0  0  0  0  0  0  0  0  0  0  0  0
   -6.4368  -14.8589   -8.5612 C   0  0  0  0  0  0  0  0  0  0  0  0
  1 18  1  0
  1 29  1  0
  2 17  2  0
  2 28  1  0
  3 12  1  0
  3 22  1  0
  3 23  2  0
  4  8  1  0
  5 14  2  0
  5 23  1  0
  6 21  2  0
  6 30  1  0
  7 15  1  0
  7 26  2  0
  7 29  1  0
  8 14  1  0
  8 28  2  0
  9 10  1  0
  9 19  1  0
 10 17  1  0
 10 21  1  0
 11 12  2  0
 11 14  1  0
 11 17  1  0
 13 25  1  0
 15 16  1  0
 15 30  2  0
 18 26  1  0
 20 22  1  0
 20 25  1  0
 21 26  1  0
 22 27  2  0
 24 25  1  0
M  END
>  <ID>  (1) 
conformer_0

$$$$
