
     RDKit          3D

 24 26  0  0  0  0  0  0  0  0999 V2000
    0.4543  -20.4446  -10.8021 N   0  0  0  0  0  0  0  0  0  0  0  0
   -1.9764  -17.9791  -13.7296 C   0  0  0  0  0  0  0  0  0  0  0  0
   -5.1480  -15.4771   -8.8006 C   0  0  0  0  0  0  0  0  0  0  0  0
   -8.4629  -15.8881   -9.5061 F   0  0  0  0  0  0  0  0  0  0  0  0
   -2.3118  -17.7434  -14.9364 O   0  0  0  0  0  0  0  0  0  0  0  0
   -2.8336  -17.5716  -12.5982 C   0  0  0  0  0  0  0  0  0  0  0  0
   -0.9876  -18.8626  -13.2567 N   0  0  0  0  0  0  0  0  0  0  0  0
   -3.8304  -17.2959   -9.6719 C   0  0  0  0  0  0  0  0  0  0  0  0
   -2.5346  -17.8714  -10.0345 C   0  0  0  0  0  0  0  0  0  0  0  0
   -7.1691  -18.4322   -8.9210 F   0  0  0  0  0  0  0  0  0  0  0  0
   -0.7144  -19.0308   -9.3460 N   0  0  0  0  0  0  0  0  0  0  0  0
   -8.2228  -16.4682   -7.4399 F   0  0  0  0  0  0  0  0  0  0  0  0
   -3.9329  -15.9899   -9.2056 C   0  0  0  0  0  0  0  0  0  0  0  0
    0.0363  -19.0486  -14.3289 O   0  0  0  0  0  0  0  0  0  0  0  0
   -1.7250  -18.2452   -9.0504 N   0  0  0  0  0  0  0  0  0  0  0  0
   -1.0939  -18.8771  -11.7161 C   0  0  0  0  0  0  0  0  0  0  0  0
   -3.4019  -16.2864  -12.6142 C   0  0  0  0  0  0  0  0  0  0  0  0
   -4.9782  -18.0586   -9.7300 C   0  0  0  0  0  0  0  0  0  0  0  0
   -6.1236  -17.5527   -9.2087 C   0  0  0  0  0  0  0  0  0  0  0  0
   -0.4152  -19.4651  -10.5860 C   0  0  0  0  0  0  0  0  0  0  0  0
   -7.6218  -15.7550   -8.4493 C   0  0  0  0  0  0  0  0  0  0  0  0
   -6.2903  -16.2574   -8.7989 C   0  0  0  0  0  0  0  0  0  0  0  0
   -7.5792  -14.4455   -8.0812 F   0  0  0  0  0  0  0  0  0  0  0  0
   -2.1630  -18.0957  -11.3878 C   0  0  0  0  0  0  0  0  0  0  0  0
  1 20  2  0
  2  5  2  0
  2  6  1  0
  2  7  1  0
  3 13  2  0
  3 22  1  0
  4 21  1  0
  6 17  1  0
  6 24  1  0
  7 14  1  0
  7 16  1  0
  8  9  1  0
  8 13  1  0
  8 18  2  0
  9 15  2  0
  9 24  1  0
 10 19  1  0
 11 15  1  0
 11 20  1  0
 12 21  1  0
 16 20  1  0
 16 24  2  0
 18 19  1  0
 19 22  2  0
 21 22  1  0
 21 23  1  0
M  END
>  <ID>  (1) 
conformer_0

$$$$
