
     RDKit          3D

 22 23  0  0  0  0  0  0  0  0999 V2000
   -1.8215  -17.7220   -9.5371 C   0  0  0  0  0  0  0  0  0  0  0  0
   -2.7541  -17.7687  -10.6019 C   0  0  0  0  0  0  0  0  0  0  0  0
   -0.8047  -19.6592  -10.3429 C   0  0  0  0  0  0  0  0  0  0  0  0
   -4.9623  -16.8712   -9.7586 C   0  0  0  0  0  0  0  0  0  0  0  0
   -2.7864  -17.2903  -13.7097 C   0  0  0  0  0  0  0  0  0  0  0  0
   -5.8283  -17.9522   -9.7125 C   0  0  0  0  0  0  0  0  0  0  0  0
   -2.5135  -18.6463  -11.6687 C   0  0  0  0  0  0  0  0  0  0  0  0
   -3.1091  -18.4314  -12.9471 N   0  0  0  0  0  0  0  0  0  0  0  0
   -7.0091  -17.8013   -9.0436 C   0  0  0  0  0  0  0  0  0  0  0  0
   -3.8642  -16.9532  -10.6025 O   0  0  0  0  0  0  0  0  0  0  0  0
   -1.5845  -20.6943  -12.3320 O   0  0  0  0  0  0  0  0  0  0  0  0
   -6.4526  -15.5689   -8.3208 C   0  0  0  0  0  0  0  0  0  0  0  0
   -1.8493  -16.6593   -8.7220 O   0  0  0  0  0  0  0  0  0  0  0  0
   -2.4887  -17.4926  -14.9666 O   0  0  0  0  0  0  0  0  0  0  0  0
    0.1458  -20.6124  -10.2045 O   0  0  0  0  0  0  0  0  0  0  0  0
   -5.2036  -15.6918   -9.0222 C   0  0  0  0  0  0  0  0  0  0  0  0
   -6.7793  -14.4855   -7.5294 O   0  0  0  0  0  0  0  0  0  0  0  0
   -8.2068  -14.2090   -7.5968 C   0  0  0  0  0  0  0  0  0  0  0  0
   -2.7256  -16.1121  -13.2058 O   0  0  0  0  0  0  0  0  0  0  0  0
   -0.8870  -18.6718   -9.3881 C   0  0  0  0  0  0  0  0  0  0  0  0
   -1.6212  -19.6845  -11.4512 C   0  0  0  0  0  0  0  0  0  0  0  0
   -7.3464  -16.6211   -8.4365 C   0  0  0  0  0  0  0  0  0  0  0  0
  1  2  1  0
  1 13  1  0
  1 20  2  0
  2  7  1  0
  2 10  1  0
  3 15  1  0
  3 20  1  0
  3 21  2  0
  4  6  2  0
  4 10  1  0
  4 16  1  0
  5  8  1  0
  5 14  2  0
  5 19  1  0
  6  9  1  0
  7  8  1  0
  7 21  1  0
  9 22  2  0
 11 21  1  0
 12 16  2  0
 12 17  1  0
 12 22  1  0
 17 18  1  0
M  END
>  <ID>  (1) 
conformer_0

$$$$
