
     RDKit          3D

 35 37  0  0  0  0  0  0  0  0999 V2000
   -0.9597  -19.4592  -10.3748 C   0  0  0  0  0  0  0  0  0  0  0  0
   -4.3731  -15.3821   -8.7301 O   0  0  0  0  0  0  0  0  0  0  0  0
    0.6184  -18.6855  -15.7970 O   0  0  0  0  0  0  0  0  0  0  0  0
   -1.9672  -17.8078  -15.0047 O   0  0  0  0  0  0  0  0  0  0  0  0
   -6.8777  -17.2228   -8.1493 C   0  0  0  0  0  0  0  0  0  0  0  0
   -6.2016  -16.4297   -8.8290 N   0  0  0  0  0  0  0  0  0  0  0  0
   -8.7651  -15.6522   -8.5997 F   0  0  0  0  0  0  0  0  0  0  0  0
   -7.7116  -14.9985   -8.0441 C   0  0  0  0  0  0  0  0  0  0  0  0
   -0.3906  -21.5451   -9.4550 O   0  0  0  0  0  0  0  0  0  0  0  0
   -1.5684  -17.9722  -13.7574 C   0  0  0  0  0  0  0  0  0  0  0  0
   -2.5475  -17.3749  -12.7897 C   0  0  0  0  0  0  0  0  0  0  0  0
    1.8086  -21.4965  -13.7425 C   0  0  0  0  0  0  0  0  0  0  0  0
   -1.3570  -18.9245   -9.1837 C   0  0  0  0  0  0  0  0  0  0  0  0
   -0.4536  -20.1635  -13.6570 O   0  0  0  0  0  0  0  0  0  0  0  0
    0.8042  -20.4412  -14.1148 C   0  0  0  0  0  0  0  0  0  0  0  0
   -3.5639  -16.6126  -13.0524 O   0  0  0  0  0  0  0  0  0  0  0  0
   -6.7387  -15.9478   -7.5966 C   0  0  0  0  0  0  0  0  0  0  0  0
   -8.1460  -14.2198   -7.0274 F   0  0  0  0  0  0  0  0  0  0  0  0
   -7.6539  -17.9396   -9.0050 F   0  0  0  0  0  0  0  0  0  0  0  0
   -6.6431  -17.9318   -7.0495 F   0  0  0  0  0  0  0  0  0  0  0  0
    0.4025  -24.1505  -11.6343 C   0  0  0  0  0  0  0  0  0  0  0  0
   -0.2014  -20.7523  -10.4518 C   0  0  0  0  0  0  0  0  0  0  0  0
    0.0991  -22.7203  -11.9811 C   0  0  0  0  0  0  0  0  0  0  0  0
   -0.8416  -18.9215  -13.0343 C   0  0  0  0  0  0  0  0  0  0  0  0
    1.4258  -19.2436  -14.7805 C   0  0  0  0  0  0  0  0  0  0  0  0
   -1.3250  -18.7983  -11.5846 C   0  0  0  0  0  0  0  0  0  0  0  0
   -2.3293  -17.9029  -11.5057 C   0  0  0  0  0  0  0  0  0  0  0  0
   -7.1753  -14.2254   -8.9734 F   0  0  0  0  0  0  0  0  0  0  0  0
   -2.4816  -18.0353   -9.0864 C   0  0  0  0  0  0  0  0  0  0  0  0
    0.4040  -21.4195  -11.5049 O   0  0  0  0  0  0  0  0  0  0  0  0
   -3.0135  -17.6111  -10.2504 C   0  0  0  0  0  0  0  0  0  0  0  0
   -0.1679  -22.8119  -13.4841 O   0  0  0  0  0  0  0  0  0  0  0  0
   -4.9169  -16.2869   -9.2546 C   0  0  0  0  0  0  0  0  0  0  0  0
   -4.3780  -17.0348  -10.2512 N   0  0  0  0  0  0  0  0  0  0  0  0
    1.2178  -22.8669  -14.0574 C   0  0  0  0  0  0  0  0  0  0  0  0
  1 13  1  0
  1 22  1  0
  1 26  1  0
  2 33  2  0
  3 25  1  0
  4 10  1  0
  5  6  1  0
  5 17  1  0
  5 19  1  0
  5 20  1  0
  6 33  1  0
  7  8  1  0
  8 17  1  0
  8 18  1  0
  8 28  1  0
  9 22  2  0
 10 11  1  0
 10 24  1  0
 11 16  1  0
 11 27  2  0
 12 15  1  0
 12 35  1  0
 13 29  1  0
 14 15  1  0
 14 24  1  0
 15 25  1  0
 21 23  1  0
 22 30  1  0
 23 30  1  0
 23 32  1  0
 24 26  1  0
 26 27  1  0
 27 31  1  0
 29 31  2  0
 31 34  1  0
 32 35  1  0
 33 34  1  0
M  END
>  <ID>  (1) 
conformer_0

$$$$
