
     RDKit          3D

 31 34  0  0  0  0  0  0  0  0999 V2000
    0.3186  -20.8608  -10.2610 C   0  0  0  0  0  0  0  0  0  0  0  0
   -2.9250  -16.8635   -9.3550 C   0  0  0  0  0  0  0  0  0  0  0  0
   -6.6832  -14.2906   -8.1167 O   0  0  0  0  0  0  0  0  0  0  0  0
    0.0002  -22.1302  -10.9016 C   0  0  0  0  0  0  0  0  0  0  0  0
   -0.6788  -17.8926  -14.2315 O   0  0  0  0  0  0  0  0  0  0  0  0
   -2.8951  -17.9218  -14.9134 O   0  0  0  0  0  0  0  0  0  0  0  0
   -7.2679  -16.5058   -8.3796 C   0  0  0  0  0  0  0  0  0  0  0  0
   -2.3582  -16.2577  -13.3896 C   0  0  0  0  0  0  0  0  0  0  0  0
   -6.3307  -18.4863   -9.3764 C   0  0  0  0  0  0  0  0  0  0  0  0
   -2.0209  -17.7113  -13.8464 C   0  0  0  0  0  0  0  0  0  0  0  0
   -1.0666  -19.6776  -12.2176 C   0  0  0  0  0  0  0  0  0  0  0  0
   -5.1498  -18.0259   -9.8210 C   0  0  0  0  0  0  0  0  0  0  0  0
   -0.6671  -22.2192  -12.2544 C   0  0  0  0  0  0  0  0  0  0  0  0
   -0.6759  -19.9619   -9.7404 C   0  0  0  0  0  0  0  0  0  0  0  0
   -1.5739  -18.8076   -7.8749 C   0  0  0  0  0  0  0  0  0  0  0  0
   -6.4065  -15.5150   -8.5344 C   0  0  0  0  0  0  0  0  0  0  0  0
   -2.1573  -17.9092   -8.7235 N   0  0  0  0  0  0  0  0  0  0  0  0
   -7.2267  -17.8409   -8.5822 C   0  0  0  0  0  0  0  0  0  0  0  0
   -3.0428  -17.1031  -10.7271 O   0  0  0  0  0  0  0  0  0  0  0  0
   -2.3724  -15.7626   -9.0109 O   0  0  0  0  0  0  0  0  0  0  0  0
   -5.1506  -15.7200   -9.0798 C   0  0  0  0  0  0  0  0  0  0  0  0
   -4.5514  -16.8666   -9.5181 C   0  0  0  0  0  0  0  0  0  0  0  0
   -0.6715  -19.7013   -8.3821 N   0  0  0  0  0  0  0  0  0  0  0  0
   -2.3490  -18.7604  -12.7169 C   0  0  0  0  0  0  0  0  0  0  0  0
   -1.3755  -19.1590  -10.7539 C   0  0  0  0  0  0  0  0  0  0  0  0
   -8.1640  -19.8386   -8.4760 C   0  0  0  0  0  0  0  0  0  0  0  0
   -2.2669  -18.0303  -11.3033 C   0  0  0  0  0  0  0  0  0  0  0  0
   -8.1962  -18.5454   -8.0075 O   0  0  0  0  0  0  0  0  0  0  0  0
   -1.6155  -21.1128  -12.4542 C   0  0  0  0  0  0  0  0  0  0  0  0
   -8.0191  -14.1817   -7.6290 C   0  0  0  0  0  0  0  0  0  0  0  0
   -1.8686  -18.6646   -6.6336 O   0  0  0  0  0  0  0  0  0  0  0  0
  1  4  1  0
  1 14  1  0
  2 17  1  0
  2 19  1  0
  2 20  1  0
  2 22  1  0
  3 16  1  0
  3 30  1  0
  4 13  1  0
  5 10  1  0
  6 10  1  0
  7 16  2  0
  7 18  1  0
  8 10  1  0
  9 12  2  0
  9 18  1  0
 10 24  1  0
 11 24  1  0
 11 25  1  0
 11 29  1  0
 12 22  1  0
 13 29  1  0
 14 23  2  0
 14 25  1  0
 15 17  1  0
 15 23  1  0
 15 31  2  0
 16 21  1  0
 18 28  1  0
 19 27  1  0
 21 22  1  0
 24 27  1  0
 25 27  1  0
 26 28  1  0
M  END
>  <ID>  (1) 
conformer_0

$$$$
