
     RDKit          3D

 18 20  0  0  0  0  0  0  0  0999 V2000
   -0.6304  -19.4222   -9.1884 O   0  0  0  0  0  0  0  0  0  0  0  0
   -3.2173  -17.0201  -12.5985 C   0  0  0  0  0  0  0  0  0  0  0  0
   -7.2191  -16.1337   -8.4044 C   0  0  0  0  0  0  0  0  0  0  0  0
   -3.0731  -17.3532  -15.0088 O   0  0  0  0  0  0  0  0  0  0  0  0
   -6.0524  -15.4102   -8.5244 C   0  0  0  0  0  0  0  0  0  0  0  0
   -1.3776  -18.5229   -9.7785 C   0  0  0  0  0  0  0  0  0  0  0  0
   -2.5265  -17.5169  -13.9083 C   0  0  0  0  0  0  0  0  0  0  0  0
   -7.3057  -17.4247   -8.8665 C   0  0  0  0  0  0  0  0  0  0  0  0
   -3.1061  -18.1261  -11.4680 C   0  0  0  0  0  0  0  0  0  0  0  0
   -3.7509  -17.7296  -10.1786 C   0  0  0  0  0  0  0  0  0  0  0  0
   -2.8321  -16.5426   -9.6820 C   0  0  0  0  0  0  0  0  0  0  0  0
   -1.7602  -17.3004   -8.9544 C   0  0  0  0  0  0  0  0  0  0  0  0
   -1.6444  -18.2863  -11.1374 O   0  0  0  0  0  0  0  0  0  0  0  0
   -1.4072  -18.1111  -13.8082 O   0  0  0  0  0  0  0  0  0  0  0  0
   -4.9491  -16.0738   -9.0426 C   0  0  0  0  0  0  0  0  0  0  0  0
   -6.1796  -18.0232   -9.4495 C   0  0  0  0  0  0  0  0  0  0  0  0
   -4.9883  -17.3367   -9.5652 C   0  0  0  0  0  0  0  0  0  0  0  0
   -3.6749  -15.5697   -9.1082 N   0  0  0  0  0  0  0  0  0  0  0  0
  1  6  2  0
  2  7  1  0
  2  9  1  0
  3  5  1  0
  3  8  2  0
  4  7  2  0
  5 15  1  0
  6 12  1  0
  6 13  1  0
  7 14  1  0
  8 16  1  0
  9 10  1  0
  9 13  1  0
 10 11  1  0
 10 17  1  0
 11 12  1  0
 11 18  1  0
 15 17  2  0
 15 18  1  0
 16 17  1  0
M  END
>  <ID>  (1) 
conformer_0

$$$$
