
     RDKit          3D

 26 28  0  0  0  0  0  0  0  0999 V2000
   -7.3524  -16.7505   -8.4326 F   0  0  0  0  0  0  0  0  0  0  0  0
   -1.0489  -19.0519   -9.0619 C   0  0  0  0  0  0  0  0  0  0  0  0
   -1.2871  -19.8685  -12.8162 C   0  0  0  0  0  0  0  0  0  0  0  0
   -1.0152  -18.4601  -14.9363 C   0  0  0  0  0  0  0  0  0  0  0  0
   -6.2179  -17.3202   -9.1074 C   0  0  0  0  0  0  0  0  0  0  0  0
   -0.4003  -19.2013  -13.7763 C   0  0  0  0  0  0  0  0  0  0  0  0
   -2.5798  -15.9321  -12.8671 O   0  0  0  0  0  0  0  0  0  0  0  0
   -5.8358  -15.2091   -9.0910 C   0  0  0  0  0  0  0  0  0  0  0  0
   -3.0373  -17.3443   -9.6881 C   0  0  0  0  0  0  0  0  0  0  0  0
   -1.5083  -19.0569  -10.3811 C   0  0  0  0  0  0  0  0  0  0  0  0
   -2.1846  -17.6546  -14.4962 C   0  0  0  0  0  0  0  0  0  0  0  0
   -2.5188  -18.1640  -10.6973 C   0  0  0  0  0  0  0  0  0  0  0  0
   -5.3330  -16.3619   -9.4158 C   0  0  0  0  0  0  0  0  0  0  0  0
   -0.1414  -19.9583   -8.7240 O   0  0  0  0  0  0  0  0  0  0  0  0
   -1.5071  -18.1672   -8.0822 C   0  0  0  0  0  0  0  0  0  0  0  0
   -6.3778  -15.1314   -6.8590 F   0  0  0  0  0  0  0  0  0  0  0  0
   -0.8489  -19.9352  -11.4023 C   0  0  0  0  0  0  0  0  0  0  0  0
   -7.9072  -14.3857   -8.3260 F   0  0  0  0  0  0  0  0  0  0  0  0
   -6.1600  -18.5815   -9.2636 F   0  0  0  0  0  0  0  0  0  0  0  0
   -4.1209  -16.5060   -9.8580 C   0  0  0  0  0  0  0  0  0  0  0  0
   -2.7645  -19.6009  -12.8443 C   0  0  0  0  0  0  0  0  0  0  0  0
   -6.8381  -15.3220   -8.1920 C   0  0  0  0  0  0  0  0  0  0  0  0
   -4.4529  -18.1075  -12.0986 O   0  0  0  0  0  0  0  0  0  0  0  0
   -3.0055  -18.2143  -12.1350 C   0  0  0  0  0  0  0  0  0  0  0  0
   -2.4679  -17.2726   -8.4740 C   0  0  0  0  0  0  0  0  0  0  0  0
   -2.2231  -17.2445  -13.0436 C   0  0  0  0  0  0  0  0  0  0  0  0
  1  5  1  0
  2 10  2  0
  2 14  1  0
  2 15  1  0
  3  6  1  0
  3 17  1  0
  3 21  1  0
  4  6  1  0
  4 11  1  0
  5 13  2  3
  5 19  1  0
  7 26  1  0
  8 13  1  0
  8 22  1  0
  9 12  2  0
  9 20  1  0
  9 25  1  0
 10 12  1  0
 10 17  1  0
 11 26  1  0
 12 24  1  0
 13 20  1  0
 15 25  2  0
 16 22  1  0
 18 22  1  0
 21 24  1  0
 23 24  1  0
 24 26  1  0
M  END
>  <ID>  (1) 
conformer_0

$$$$
