
     RDKit          3D

 11 10  0  0  0  0  0  0  0  0999 V2000
   -2.1597  -18.5874  -13.3678 C   0  0  0  0  0  0  0  0  0  0  0  0
   -7.6319  -15.9507   -8.7110 C   0  0  0  0  0  0  0  0  0  0  0  0
   -2.8176  -16.3061  -12.9782 O   0  0  0  0  0  0  0  0  0  0  0  0
   -3.9945  -16.5312   -9.3715 C   0  0  0  0  0  0  0  0  0  0  0  0
   -3.2663  -17.9382  -11.2784 C   0  0  0  0  0  0  0  0  0  0  0  0
   -0.8728  -18.1433  -13.6595 O   0  0  0  0  0  0  0  0  0  0  0  0
   -4.2961  -17.0773  -10.6781 C   0  0  0  0  0  0  0  0  0  0  0  0
   -2.7322  -16.5544   -8.9332 N   0  0  0  0  0  0  0  0  0  0  0  0
   -5.1762  -16.0956   -8.5932 C   0  0  0  0  0  0  0  0  0  0  0  0
   -6.4339  -16.9087   -8.9645 C   0  0  0  0  0  0  0  0  0  0  0  0
   -2.9545  -17.5989  -12.7082 C   0  0  0  0  0  0  0  0  0  0  0  0
  1  6  1  0
  1 11  1  0
  2 10  1  0
  3 11  1  0
  4  7  1  0
  4  8  1  0
  4  9  1  0
  5  7  1  0
  5 11  1  0
  9 10  1  0
M  END
>  <ID>  (1) 
conformer_0

$$$$
