
     RDKit          3D

 17 18  0  0  0  0  0  0  0  0999 V2000
   -1.8632  -18.7455  -13.1688 N   0  0  0  0  0  0  0  0  0  0  0  0
   -5.1553  -18.1099   -9.7471 C   0  0  0  0  0  0  0  0  0  0  0  0
   -6.4639  -15.9053   -8.6315 C   0  0  0  0  0  0  0  0  0  0  0  0
   -5.1135  -15.7760   -9.0197 C   0  0  0  0  0  0  0  0  0  0  0  0
   -0.8001  -19.0551   -9.6507 N   0  0  0  0  0  0  0  0  0  0  0  0
   -2.8394  -17.3162  -11.4456 C   0  0  0  0  0  0  0  0  0  0  0  0
   -3.0952  -16.8867  -13.7796 C   0  0  0  0  0  0  0  0  0  0  0  0
   -1.5942  -19.4757  -10.8390 C   0  0  0  0  0  0  0  0  0  0  0  0
   -2.3500  -17.9549  -14.1154 C   0  0  0  0  0  0  0  0  0  0  0  0
   -3.3746  -16.5925  -12.4428 C   0  0  0  0  0  0  0  0  0  0  0  0
   -7.1185  -17.0819   -8.7805 C   0  0  0  0  0  0  0  0  0  0  0  0
   -6.4703  -18.1796   -9.3481 C   0  0  0  0  0  0  0  0  0  0  0  0
   -2.0857  -18.4614  -11.8415 C   0  0  0  0  0  0  0  0  0  0  0  0
   -3.0395  -16.8885  -10.0374 C   0  0  0  0  0  0  0  0  0  0  0  0
   -7.2392  -14.7610   -8.0878 C   0  0  0  0  0  0  0  0  0  0  0  0
   -2.1606  -16.6507   -9.1703 O   0  0  0  0  0  0  0  0  0  0  0  0
   -4.4462  -16.9007   -9.5805 C   0  0  0  0  0  0  0  0  0  0  0  0
  1  9  2  0
  1 13  1  0
  2 12  2  0
  2 17  1  0
  3  4  1  0
  3 11  2  0
  3 15  1  0
  4 17  2  0
  5  8  1  0
  6 10  2  0
  6 13  1  0
  6 14  1  0
  7  9  1  0
  7 10  1  0
  8 13  1  0
 11 12  1  0
 14 16  2  0
 14 17  1  0
M  END
>  <ID>  (1) 
conformer_0

$$$$
