
     RDKit          3D

 29 33  0  0  0  0  0  0  0  0999 V2000
   -5.6521  -15.1801   -8.2385 C   0  0  0  0  0  0  0  0  0  0  0  0
   -3.2541  -16.7614   -9.1185 N   0  0  0  0  0  0  0  0  0  0  0  0
   -7.8502  -14.6467   -7.6177 C   0  0  0  0  0  0  0  0  0  0  0  0
   -2.7926  -16.1985  -13.4640 O   0  0  0  0  0  0  0  0  0  0  0  0
   -0.5586  -18.9193   -9.2283 C   0  0  0  0  0  0  0  0  0  0  0  0
   -2.5646  -17.6141  -13.4905 C   0  0  0  0  0  0  0  0  0  0  0  0
   -2.8052  -18.9934  -13.9179 O   0  0  0  0  0  0  0  0  0  0  0  0
   -2.7717  -17.8728  -11.9111 C   0  0  0  0  0  0  0  0  0  0  0  0
   -1.3710  -20.0154  -11.6566 C   0  0  0  0  0  0  0  0  0  0  0  0
   -8.3724  -15.8595   -8.0923 C   0  0  0  0  0  0  0  0  0  0  0  0
   -5.5269  -17.3731   -9.5328 C   0  0  0  0  0  0  0  0  0  0  0  0
    0.3229  -21.8992  -11.2650 C   0  0  0  0  0  0  0  0  0  0  0  0
   -6.1164  -16.3477   -8.7935 C   0  0  0  0  0  0  0  0  0  0  0  0
   -6.5465  -14.3001   -7.6174 C   0  0  0  0  0  0  0  0  0  0  0  0
   -1.9048  -17.5104  -15.0523 C   0  0  0  0  0  0  0  0  0  0  0  0
    0.0409  -20.0241   -9.6937 C   0  0  0  0  0  0  0  0  0  0  0  0
   -0.8914  -22.3212  -13.4067 C   0  0  0  0  0  0  0  0  0  0  0  0
   -1.5981  -21.0547  -12.8514 C   0  0  0  0  0  0  0  0  0  0  0  0
   -4.2098  -17.1828  -10.0371 C   0  0  0  0  0  0  0  0  0  0  0  0
   -7.4631  -16.7100   -8.6349 C   0  0  0  0  0  0  0  0  0  0  0  0
   -1.9060  -18.7228  -11.2064 C   0  0  0  0  0  0  0  0  0  0  0  0
   -0.3508  -20.6139  -10.8708 C   0  0  0  0  0  0  0  0  0  0  0  0
   -1.5825  -18.3009   -9.9103 C   0  0  0  0  0  0  0  0  0  0  0  0
    1.4435  -22.2412  -10.4416 O   0  0  0  0  0  0  0  0  0  0  0  0
   -3.8656  -17.3355  -11.3330 C   0  0  0  0  0  0  0  0  0  0  0  0
   -7.6051  -17.9813   -9.1212 N   0  0  0  0  0  0  0  0  0  0  0  0
   -2.0820  -17.2534   -9.1973 N   0  0  0  0  0  0  0  0  0  0  0  0
   -6.3339  -18.4523   -9.6341 C   0  0  0  0  0  0  0  0  0  0  0  0
    0.0517  -22.9323  -12.2698 C   0  0  0  0  0  0  0  0  0  0  0  0
  1 13  1  0
  1 14  1  0
  2 19  1  0
  2 27  2  0
  3 10  1  0
  3 14  2  0
  4  6  1  0
  5 16  1  0
  5 23  2  0
  6  7  1  0
  6  8  1  0
  6 15  1  0
  8 21  1  0
  8 25  1  0
  9 18  1  0
  9 21  2  0
  9 22  1  0
 10 20  2  0
 11 13  2  0
 11 19  1  0
 11 28  1  0
 12 22  1  0
 12 24  1  0
 12 29  1  0
 13 20  1  0
 16 22  2  0
 17 18  1  0
 17 29  1  0
 19 25  1  0
 20 26  1  0
 21 23  1  0
 23 27  1  0
 26 28  1  0
M  END
>  <ID>  (1) 
conformer_0

$$$$
