
     RDKit          3D

  9  8  0  0  0  0  0  0  0  0999 V2000
   -2.9056  -16.0325  -12.3324 O   0  0  0  0  0  0  0  0  0  0  0  0
   -2.9619  -16.1364   -9.3619 O   0  0  0  0  0  0  0  0  0  0  0  0
   -5.3239  -16.3331   -8.9136 C   0  0  0  0  0  0  0  0  0  0  0  0
   -3.8213  -16.8619  -12.2518 C   0  0  0  0  0  0  0  0  0  0  0  0
   -6.2601  -17.4257   -8.8451 O   0  0  0  0  0  0  0  0  0  0  0  0
   -4.1754  -16.6102   -9.6863 C   0  0  0  0  0  0  0  0  0  0  0  0
   -4.3050  -17.4119  -10.9224 C   0  0  0  0  0  0  0  0  0  0  0  0
   -6.3643  -15.3538   -8.5057 C   0  0  0  0  0  0  0  0  0  0  0  0
   -4.5219  -17.2210  -13.2541 O   0  0  0  0  0  0  0  0  0  0  0  0
  1  4  2  0
  2  6  1  0
  3  5  1  0
  3  6  1  0
  3  8  1  0
  4  7  1  0
  4  9  1  0
  6  7  1  0
M  END
>  <ID>  (1) 
conformer_0

$$$$
