
     RDKit          3D

 32 35  0  0  0  0  0  0  0  0999 V2000
   -5.4437  -17.6036   -9.4210 C   0  0  0  0  0  0  0  0  0  0  0  0
   -3.8583  -15.9196  -10.1664 N   0  0  0  0  0  0  0  0  0  0  0  0
   -2.0936  -17.7965  -10.4419 C   0  0  0  0  0  0  0  0  0  0  0  0
   -0.8499  -17.0599   -8.7026 O   0  0  0  0  0  0  0  0  0  0  0  0
   -1.6947  -17.9061   -9.0384 C   0  0  0  0  0  0  0  0  0  0  0  0
   -1.2260  -22.7156  -11.1525 C   0  0  0  0  0  0  0  0  0  0  0  0
    1.1282  -22.3849  -11.2508 C   0  0  0  0  0  0  0  0  0  0  0  0
   -1.7755  -17.7535  -15.2218 O   0  0  0  0  0  0  0  0  0  0  0  0
   -9.2754  -15.2139   -7.3986 F   0  0  0  0  0  0  0  0  0  0  0  0
   -7.5175  -16.9122   -8.4368 C   0  0  0  0  0  0  0  0  0  0  0  0
   -0.4981  -19.2374  -12.2420 C   0  0  0  0  0  0  0  0  0  0  0  0
    2.3267  -22.8572  -10.9821 F   0  0  0  0  0  0  0  0  0  0  0  0
   -5.9136  -15.2379   -9.0057 C   0  0  0  0  0  0  0  0  0  0  0  0
   -6.6471  -17.9167   -8.8556 C   0  0  0  0  0  0  0  0  0  0  0  0
   -1.4353  -18.0774  -14.0246 C   0  0  0  0  0  0  0  0  0  0  0  0
   -3.0340  -16.7778  -10.8767 C   0  0  0  0  0  0  0  0  0  0  0  0
   -8.0988  -13.4239   -7.9641 F   0  0  0  0  0  0  0  0  0  0  0  0
   -2.9090  -16.6789  -12.2550 C   0  0  0  0  0  0  0  0  0  0  0  0
   -3.5155  -15.7484  -12.9301 O   0  0  0  0  0  0  0  0  0  0  0  0
   -0.5455  -19.0536  -13.7333 N   0  0  0  0  0  0  0  0  0  0  0  0
   -5.0980  -16.2545   -9.5377 C   0  0  0  0  0  0  0  0  0  0  0  0
    0.9599  -21.1026  -11.6585 C   0  0  0  0  0  0  0  0  0  0  0  0
   -1.4806  -18.3534  -11.6811 C   0  0  0  0  0  0  0  0  0  0  0  0
    0.7311  -19.1617  -14.3656 C   0  0  0  0  0  0  0  0  0  0  0  0
    0.2196  -24.5033  -10.9464 F   0  0  0  0  0  0  0  0  0  0  0  0
   -0.3085  -20.5916  -11.8120 C   0  0  0  0  0  0  0  0  0  0  0  0
   -2.3828  -18.4803   -8.2150 O   0  0  0  0  0  0  0  0  0  0  0  0
   -1.4214  -21.4079  -11.5000 C   0  0  0  0  0  0  0  0  0  0  0  0
    0.0268  -23.2136  -11.1004 C   0  0  0  0  0  0  0  0  0  0  0  0
   -2.0134  -17.6117  -12.8455 C   0  0  0  0  0  0  0  0  0  0  0  0
   -8.1642  -14.6726   -7.9898 C   0  0  0  0  0  0  0  0  0  0  0  0
   -7.2014  -15.5497   -8.4735 C   0  0  0  0  0  0  0  0  0  0  0  0
  1 14  2  0
  1 21  1  0
  2 16  1  0
  2 21  2  3
  3  5  1  0
  3 16  1  0
  3 23  1  0
  4  5  2  0
  5 27  1  0
  6 28  2  0
  6 29  1  0
  7 12  1  0
  7 22  1  0
  7 29  2  0
  8 15  2  0
  9 31  1  0
 10 14  1  0
 10 32  1  0
 11 20  1  0
 11 23  1  0
 11 26  1  0
 13 21  1  0
 13 32  1  0
 15 20  1  0
 15 30  1  0
 16 18  2  0
 17 31  1  0
 18 19  1  0
 18 30  1  0
 20 24  1  0
 22 26  2  0
 23 30  2  0
 25 29  1  0
 26 28  1  0
 31 32  2  3
M  END
>  <ID>  (1) 
conformer_0

$$$$
