
     RDKit          3D

 21 21  0  0  0  0  0  0  0  0999 V2000
   -4.8481  -16.5144   -9.5665 C   0  0  0  0  0  0  0  0  0  0  0  0
   -3.0428  -15.4695  -12.7179 O   0  0  0  0  0  0  0  0  0  0  0  0
   -6.5238  -15.4345   -8.2868 C   0  0  0  0  0  0  0  0  0  0  0  0
   -7.3085  -16.5561   -8.3922 C   0  0  0  0  0  0  0  0  0  0  0  0
   -2.7590  -17.6610  -14.8520 O   0  0  0  0  0  0  0  0  0  0  0  0
   -2.8634  -19.0017  -12.7941 C   0  0  0  0  0  0  0  0  0  0  0  0
    0.3283  -20.4592   -9.9667 C   0  0  0  0  0  0  0  0  0  0  0  0
   -5.5833  -17.6494   -9.6256 C   0  0  0  0  0  0  0  0  0  0  0  0
   -5.2895  -15.3830   -8.8951 C   0  0  0  0  0  0  0  0  0  0  0  0
   -1.9825  -17.4634   -9.1574 O   0  0  0  0  0  0  0  0  0  0  0  0
   -0.4286  -18.4783  -11.7974 O   0  0  0  0  0  0  0  0  0  0  0  0
   -2.7166  -18.5744  -11.2083 C   0  0  0  0  0  0  0  0  0  0  0  0
   -2.7837  -17.5174  -10.1045 C   0  0  0  0  0  0  0  0  0  0  0  0
   -6.8479  -17.6665   -9.0722 C   0  0  0  0  0  0  0  0  0  0  0  0
    0.2341  -21.7139  -10.1491 O   0  0  0  0  0  0  0  0  0  0  0  0
   -3.6299  -16.4220  -10.1572 N   0  0  0  0  0  0  0  0  0  0  0  0
    1.4121  -19.7711   -9.9158 O   0  0  0  0  0  0  0  0  0  0  0  0
   -2.7341  -17.6762  -13.5378 C   0  0  0  0  0  0  0  0  0  0  0  0
   -3.6460  -16.7017  -12.8397 C   0  0  0  0  0  0  0  0  0  0  0  0
   -1.2793  -19.0476  -11.0514 C   0  0  0  0  0  0  0  0  0  0  0  0
   -0.9741  -19.7700   -9.9045 N   0  0  0  0  0  0  0  0  0  0  0  0
  1  8  2  0
  1  9  1  0
  1 16  1  0
  2 19  1  0
  3  4  1  0
  3  9  2  0
  4 14  2  0
  5 18  1  0
  6 12  1  0
  6 18  1  0
  7 15  2  0
  7 17  1  0
  7 21  1  0
  8 14  1  0
 10 13  2  0
 11 20  2  0
 12 13  1  0
 12 20  1  0
 13 16  1  0
 18 19  1  0
 20 21  1  0
M  END
>  <ID>  (1) 
conformer_0

$$$$
