
     RDKit          3D

 25 27  0  0  0  0  0  0  0  0999 V2000
   -2.7715  -16.3059  -12.9452 C   0  0  0  0  0  0  0  0  0  0  0  0
   -1.4429  -21.5440  -13.0135 O   0  0  0  0  0  0  0  0  0  0  0  0
   -2.0750  -17.5322  -12.9692 C   0  0  0  0  0  0  0  0  0  0  0  0
   -7.1707  -16.5786   -8.7449 C   0  0  0  0  0  0  0  0  0  0  0  0
   -6.5516  -15.4834   -8.3277 C   0  0  0  0  0  0  0  0  0  0  0  0
   -0.7662  -19.3944  -13.6193 C   0  0  0  0  0  0  0  0  0  0  0  0
   -2.3865  -19.6388  -11.8210 C   0  0  0  0  0  0  0  0  0  0  0  0
   -1.1040  -18.0486  -13.7785 C   0  0  0  0  0  0  0  0  0  0  0  0
   -3.0965  -15.1389   -9.1685 O   0  0  0  0  0  0  0  0  0  0  0  0
   -2.9812  -17.9868   -9.5587 C   0  0  0  0  0  0  0  0  0  0  0  0
   -8.4664  -16.5767   -8.5465 F   0  0  0  0  0  0  0  0  0  0  0  0
    0.3647  -19.8646  -14.1847 O   0  0  0  0  0  0  0  0  0  0  0  0
   -7.2424  -14.5923   -7.5847 F   0  0  0  0  0  0  0  0  0  0  0  0
   -4.2461  -15.8290   -9.1591 C   0  0  0  0  0  0  0  0  0  0  0  0
   -4.1283  -17.2003   -9.7263 C   0  0  0  0  0  0  0  0  0  0  0  0
   -6.5878  -17.6375   -9.2757 C   0  0  0  0  0  0  0  0  0  0  0  0
   -0.6196  -17.7588   -9.2277 O   0  0  0  0  0  0  0  0  0  0  0  0
   -1.5466  -20.2147  -12.7953 C   0  0  0  0  0  0  0  0  0  0  0  0
   -2.5621  -18.2708  -11.8729 C   0  0  0  0  0  0  0  0  0  0  0  0
   -5.3824  -17.9237   -9.6987 C   0  0  0  0  0  0  0  0  0  0  0  0
   -1.7362  -17.7542   -8.7725 C   0  0  0  0  0  0  0  0  0  0  0  0
   -1.9736  -17.7630   -7.4814 O   0  0  0  0  0  0  0  0  0  0  0  0
   -5.2871  -15.1555   -8.5222 C   0  0  0  0  0  0  0  0  0  0  0  0
   -3.5011  -16.2027  -11.8061 N   0  0  0  0  0  0  0  0  0  0  0  0
   -3.2564  -17.3797  -10.9405 N   0  0  0  0  0  0  0  0  0  0  0  0
  1  3  1  0
  1 24  1  0
  2 18  1  0
  3  8  1  0
  3 19  1  0
  4  5  2  0
  4 11  1  0
  4 16  1  0
  5 13  1  0
  5 23  1  0
  6  8  2  0
  6 12  1  0
  6 18  1  0
  7 18  2  0
  7 19  1  0
  9 14  1  0
 10 15  1  0
 10 21  1  0
 14 15  1  0
 14 23  2  0
 15 20  1  0
 15 25  1  0
 16 20  2  0
 17 21  2  0
 19 25  1  0
 21 22  1  0
 24 25  1  0
M  END
>  <ID>  (1) 
conformer_0

$$$$
