
     RDKit          3D

 27 30  0  0  0  0  0  0  0  0999 V2000
   -1.5918  -18.1876   -9.2925 C   0  0  0  0  0  0  0  0  0  0  0  0
   -2.8944  -16.4321  -13.5461 N   0  0  0  0  0  0  0  0  0  0  0  0
    0.8548  -20.5984  -10.8577 C   0  0  0  0  0  0  0  0  0  0  0  0
   -2.4475  -19.4135  -13.4596 C   0  0  0  0  0  0  0  0  0  0  0  0
   -1.0320  -22.6422  -10.7353 C   0  0  0  0  0  0  0  0  0  0  0  0
   -4.1194  -16.0007   -9.1525 N   0  0  0  0  0  0  0  0  0  0  0  0
   -2.9142  -16.6487  -12.2545 C   0  0  0  0  0  0  0  0  0  0  0  0
   -5.4588  -15.9460   -8.8714 C   0  0  0  0  0  0  0  0  0  0  0  0
   -7.3186  -17.4483   -9.0013 C   0  0  0  0  0  0  0  0  0  0  0  0
   -0.5881  -19.1385   -9.5883 N   0  0  0  0  0  0  0  0  0  0  0  0
   -6.2593  -14.9412   -8.3709 C   0  0  0  0  0  0  0  0  0  0  0  0
   -8.1149  -16.4356   -8.4716 C   0  0  0  0  0  0  0  0  0  0  0  0
   -2.5554  -19.0428  -12.1718 C   0  0  0  0  0  0  0  0  0  0  0  0
   -1.3216  -21.4067  -10.1591 C   0  0  0  0  0  0  0  0  0  0  0  0
   -0.3591  -20.3954  -10.2105 C   0  0  0  0  0  0  0  0  0  0  0  0
   -3.9174  -17.2300   -9.6437 C   0  0  0  0  0  0  0  0  0  0  0  0
   -7.5973  -15.2180   -8.2058 C   0  0  0  0  0  0  0  0  0  0  0  0
   -6.0029  -17.1706   -9.2136 C   0  0  0  0  0  0  0  0  0  0  0  0
   -1.5277  -17.5352   -8.0758 O   0  0  0  0  0  0  0  0  0  0  0  0
   -2.6812  -17.3088  -14.5044 C   0  0  0  0  0  0  0  0  0  0  0  0
   -2.6892  -17.7521  -10.1028 C   0  0  0  0  0  0  0  0  0  0  0  0
    0.1964  -22.8517  -11.3757 C   0  0  0  0  0  0  0  0  0  0  0  0
    0.6248  -18.7904   -8.8536 O   0  0  0  0  0  0  0  0  0  0  0  0
   -2.4997  -18.6148  -14.5277 C   0  0  0  0  0  0  0  0  0  0  0  0
   -2.6824  -17.8101  -11.6098 C   0  0  0  0  0  0  0  0  0  0  0  0
    1.1231  -21.8251  -11.4303 C   0  0  0  0  0  0  0  0  0  0  0  0
   -5.0348  -17.9444   -9.7075 N   0  0  0  0  0  0  0  0  0  0  0  0
  1 10  1  0
  1 19  2  0
  1 21  1  0
  2  7  2  0
  2 20  1  0
  3 15  2  0
  3 26  1  0
  4 13  2  0
  4 24  1  0
  5 14  2  0
  5 22  1  0
  6  8  1  0
  6 16  2  0
  7 25  1  0
  8 11  2  0
  8 18  1  0
  9 12  1  0
  9 18  2  0
 10 15  1  0
 10 23  1  0
 11 17  1  0
 12 17  2  0
 13 25  1  0
 14 15  1  0
 16 21  1  0
 16 27  1  0
 18 27  1  0
 20 24  2  0
 21 25  1  0
 22 26  2  0
M  END
>  <ID>  (1) 
conformer_0

$$$$
