
     RDKit          3D

 21 22  0  0  0  0  0  0  0  0999 V2000
   -8.4856  -15.8512   -8.9007 F   0  0  0  0  0  0  0  0  0  0  0  0
   -1.7528  -18.4687  -12.5440 C   0  0  0  0  0  0  0  0  0  0  0  0
   -7.1867  -17.7774   -7.9054 F   0  0  0  0  0  0  0  0  0  0  0  0
   -1.3529  -17.9906   -8.9149 N   0  0  0  0  0  0  0  0  0  0  0  0
   -3.0099  -17.2672  -10.9026 C   0  0  0  0  0  0  0  0  0  0  0  0
   -0.3692  -19.5710  -10.2010 O   0  0  0  0  0  0  0  0  0  0  0  0
   -6.9014  -14.8933   -7.5806 F   0  0  0  0  0  0  0  0  0  0  0  0
   -7.2147  -15.6877   -8.5853 C   0  0  0  0  0  0  0  0  0  0  0  0
   -3.5676  -16.5191  -11.8638 C   0  0  0  0  0  0  0  0  0  0  0  0
   -2.5994  -17.4015   -8.5390 O   0  0  0  0  0  0  0  0  0  0  0  0
   -1.9980  -18.1637  -11.1834 C   0  0  0  0  0  0  0  0  0  0  0  0
   -6.5040  -16.9174   -8.6077 C   0  0  0  0  0  0  0  0  0  0  0  0
   -1.0196  -19.5398  -12.9314 O   0  0  0  0  0  0  0  0  0  0  0  0
   -3.1675  -16.7196  -13.1818 C   0  0  0  0  0  0  0  0  0  0  0  0
   -1.2315  -18.6817  -10.0736 C   0  0  0  0  0  0  0  0  0  0  0  0
   -2.2901  -17.6725  -13.5241 C   0  0  0  0  0  0  0  0  0  0  0  0
   -4.3841  -16.0412   -9.2305 C   0  0  0  0  0  0  0  0  0  0  0  0
   -1.9162  -17.8423  -14.8131 O   0  0  0  0  0  0  0  0  0  0  0  0
   -6.4627  -17.3660   -9.9199 F   0  0  0  0  0  0  0  0  0  0  0  0
   -5.1537  -16.6988   -8.0700 C   0  0  0  0  0  0  0  0  0  0  0  0
   -3.4708  -17.1617   -9.5367 C   0  0  0  0  0  0  0  0  0  0  0  0
  1  8  1  0
  2 11  1  0
  2 13  1  0
  2 16  1  0
  3 12  1  0
  4 10  1  0
  4 15  1  0
  5  9  2  0
  5 11  1  0
  5 21  1  0
  6 15  2  0
  7  8  1  0
  8 12  1  0
  9 14  1  0
 10 21  1  0
 11 15  1  0
 12 19  1  0
 12 20  1  0
 14 16  2  0
 16 18  1  0
 17 20  1  0
 17 21  1  0
M  END
>  <ID>  (1) 
conformer_0

$$$$
