
     RDKit          3D

 12 13  0  0  0  0  0  0  0  0999 V2000
   -4.7091  -15.8972   -9.0692 C   0  0  0  0  0  0  0  0  0  0  0  0
   -3.8276  -17.2816  -10.8835 C   0  0  0  0  0  0  0  0  0  0  0  0
   -2.1327  -18.2946  -12.0975 C   0  0  0  0  0  0  0  0  0  0  0  0
   -2.5495  -17.5136  -14.6668 Cl  0  0  0  0  0  0  0  0  0  0  0  0
   -2.7627  -18.1297  -10.7984 C   0  0  0  0  0  0  0  0  0  0  0  0
   -6.9829  -17.4540   -9.0266 C   0  0  0  0  0  0  0  0  0  0  0  0
   -5.9259  -17.7969   -9.8257 C   0  0  0  0  0  0  0  0  0  0  0  0
   -2.8195  -17.5559  -12.9830 C   0  0  0  0  0  0  0  0  0  0  0  0
   -5.8036  -15.5727   -8.2738 C   0  0  0  0  0  0  0  0  0  0  0  0
   -4.7977  -16.9877   -9.9133 C   0  0  0  0  0  0  0  0  0  0  0  0
   -3.9107  -16.8325  -12.2687 O   0  0  0  0  0  0  0  0  0  0  0  0
   -6.9302  -16.3291   -8.2858 C   0  0  0  0  0  0  0  0  0  0  0  0
  1  9  2  0
  1 10  1  0
  2  5  1  0
  2 10  1  0
  2 11  1  0
  3  5  1  0
  3  8  1  0
  4  8  1  0
  6  7  1  0
  6 12  2  0
  7 10  2  0
  8 11  1  0
  9 12  1  0
M  END
>  <ID>  (1) 
conformer_0

$$$$
