
     RDKit          3D

 18 20  0  0  0  0  0  0  0  0999 V2000
   -5.4162  -17.9068   -9.6406 C   0  0  0  0  0  0  0  0  0  0  0  0
   -5.3070  -15.3825   -8.5301 C   0  0  0  0  0  0  0  0  0  0  0  0
   -1.8408  -17.9636   -9.3209 C   0  0  0  0  0  0  0  0  0  0  0  0
   -3.0360  -17.8881   -9.9595 N   0  0  0  0  0  0  0  0  0  0  0  0
   -1.4630  -18.5218  -11.5456 C   0  0  0  0  0  0  0  0  0  0  0  0
   -6.4840  -16.0898   -8.5699 C   0  0  0  0  0  0  0  0  0  0  0  0
   -1.1988  -18.2240  -13.0699 C   0  0  0  0  0  0  0  0  0  0  0  0
   -2.9573  -18.4033  -11.2815 C   0  0  0  0  0  0  0  0  0  0  0  0
   -3.7299  -18.0518  -12.5573 C   0  0  0  0  0  0  0  0  0  0  0  0
   -2.5187  -16.1588  -13.4648 O   0  0  0  0  0  0  0  0  0  0  0  0
   -6.5533  -17.3153   -9.1202 C   0  0  0  0  0  0  0  0  0  0  0  0
   -1.7013  -17.7152   -8.1168 O   0  0  0  0  0  0  0  0  0  0  0  0
   -4.1705  -15.9642   -9.0222 C   0  0  0  0  0  0  0  0  0  0  0  0
   -7.5945  -15.4927   -8.0565 F   0  0  0  0  0  0  0  0  0  0  0  0
   -0.9001  -18.3739  -10.2291 N   0  0  0  0  0  0  0  0  0  0  0  0
   -2.6129  -17.5240  -13.6223 C   0  0  0  0  0  0  0  0  0  0  0  0
   -4.2091  -17.2579   -9.5504 C   0  0  0  0  0  0  0  0  0  0  0  0
   -2.8795  -17.8841  -14.8558 O   0  0  0  0  0  0  0  0  0  0  0  0
  1 11  2  0
  1 17  1  0
  2  6  2  0
  2 13  1  0
  3  4  1  0
  3 12  2  0
  3 15  1  0
  4  8  1  0
  4 17  1  0
  5  7  1  0
  5  8  1  0
  5 15  1  0
  6 11  1  0
  6 14  1  0
  7 16  1  0
  8  9  1  0
  9 16  1  0
 10 16  1  0
 13 17  2  0
 16 18  1  0
M  END
>  <ID>  (1) 
conformer_0

$$$$
