
     RDKit          3D

 15 15  0  0  0  0  0  0  0  0999 V2000
   -1.9751  -17.5113  -14.4937 O   0  0  0  0  0  0  0  0  0  0  0  0
   -7.6679  -15.7282   -8.6107 Cl  0  0  0  0  0  0  0  0  0  0  0  0
   -2.5457  -18.0018  -12.3099 C   0  0  0  0  0  0  0  0  0  0  0  0
   -6.1335  -15.5603   -8.3513 C   0  0  0  0  0  0  0  0  0  0  0  0
   -2.8080  -18.1539   -9.4449 C   0  0  0  0  0  0  0  0  0  0  0  0
   -5.7961  -17.4603   -9.8852 C   0  0  0  0  0  0  0  0  0  0  0  0
   -3.5271  -15.8866  -12.3944 O   0  0  0  0  0  0  0  0  0  0  0  0
   -1.3241  -18.1777   -9.3791 C   0  0  0  0  0  0  0  0  0  0  0  0
   -2.8634  -18.2179  -13.6960 C   0  0  0  0  0  0  0  0  0  0  0  0
   -3.2101  -16.9164  -10.2090 C   0  0  0  0  0  0  0  0  0  0  0  0
   -1.5035  -18.8960  -11.7601 C   0  0  0  0  0  0  0  0  0  0  0  0
   -0.7474  -18.9317  -10.5181 C   0  0  0  0  0  0  0  0  0  0  0  0
   -3.9031  -15.9981   -9.4186 O   0  0  0  0  0  0  0  0  0  0  0  0
   -3.3102  -16.9425  -11.6392 C   0  0  0  0  0  0  0  0  0  0  0  0
   -5.1655  -16.4662   -8.9334 C   0  0  0  0  0  0  0  0  0  0  0  0
  1  9  1  0
  2  4  1  0
  3  9  1  0
  3 11  2  0
  3 14  1  0
  4 15  1  0
  5  8  1  0
  5 10  1  0
  6 15  1  0
  7 14  1  0
  8 12  1  0
 10 13  1  0
 10 14  1  0
 11 12  1  0
 13 15  1  0
M  END
>  <ID>  (1) 
conformer_0

$$$$
