
     RDKit          3D

 13 13  0  0  0  0  0  0  0  0999 V2000
   -3.6818  -16.8703   -9.4680 C   0  0  0  0  0  0  0  0  0  0  0  0
   -5.5059  -17.9287  -10.4918 C   0  0  0  0  0  0  0  0  0  0  0  0
   -4.1565  -17.6215  -10.5353 C   0  0  0  0  0  0  0  0  0  0  0  0
   -2.7184  -17.5245  -13.9549 O   0  0  0  0  0  0  0  0  0  0  0  0
   -6.3695  -17.2818   -9.6235 C   0  0  0  0  0  0  0  0  0  0  0  0
   -3.2729  -18.0617  -11.6862 C   0  0  0  0  0  0  0  0  0  0  0  0
   -3.1178  -15.8165  -12.6064 O   0  0  0  0  0  0  0  0  0  0  0  0
   -2.2542  -18.9467  -11.4667 O   0  0  0  0  0  0  0  0  0  0  0  0
   -2.4047  -16.8506   -9.1586 F   0  0  0  0  0  0  0  0  0  0  0  0
   -4.5407  -16.1155   -8.6551 C   0  0  0  0  0  0  0  0  0  0  0  0
   -3.0949  -17.0980  -12.8221 C   0  0  0  0  0  0  0  0  0  0  0  0
   -5.9049  -16.2965   -8.8271 C   0  0  0  0  0  0  0  0  0  0  0  0
   -7.0013  -15.1999   -8.1057 Cl  0  0  0  0  0  0  0  0  0  0  0  0
  1  3  2  0
  1  9  1  0
  1 10  1  0
  2  3  1  0
  2  5  2  0
  3  6  1  0
  4 11  2  0
  5 12  1  0
  6  8  1  0
  6 11  1  0
  7 11  1  0
 10 12  2  0
 12 13  1  0
M  END
>  <ID>  (1) 
conformer_0

$$$$
