
     RDKit          3D

 21 22  0  0  0  0  0  0  0  0999 V2000
   -4.5368  -18.5732  -10.0838 C   0  0  0  0  0  0  0  0  0  0  0  0
   -6.9603  -15.6335   -8.3368 C   0  0  0  0  0  0  0  0  0  0  0  0
   -5.0329  -16.2553   -9.6249 C   0  0  0  0  0  0  0  0  0  0  0  0
   -3.4081  -15.1792  -12.9064 O   0  0  0  0  0  0  0  0  0  0  0  0
    0.0061  -21.0390  -13.1482 C   0  0  0  0  0  0  0  0  0  0  0  0
   -3.9802  -15.8809  -10.3832 N   0  0  0  0  0  0  0  0  0  0  0  0
   -1.9814  -19.8125  -12.0910 N   0  0  0  0  0  0  0  0  0  0  0  0
   -5.7736  -15.2774   -8.9156 C   0  0  0  0  0  0  0  0  0  0  0  0
   -0.8959  -17.9590   -9.2418 O   0  0  0  0  0  0  0  0  0  0  0  0
   -2.2168  -19.1022  -10.8745 C   0  0  0  0  0  0  0  0  0  0  0  0
    0.3313  -19.4651  -10.3797 O   0  0  0  0  0  0  0  0  0  0  0  0
   -5.4330  -17.6161   -9.6158 C   0  0  0  0  0  0  0  0  0  0  0  0
   -3.0701  -16.3421  -12.5672 C   0  0  0  0  0  0  0  0  0  0  0  0
   -3.3793  -18.1568  -10.7505 C   0  0  0  0  0  0  0  0  0  0  0  0
   -1.0844  -20.9298  -12.1628 C   0  0  0  0  0  0  0  0  0  0  0  0
   -6.7200  -17.8981   -9.1164 C   0  0  0  0  0  0  0  0  0  0  0  0
   -2.4710  -17.1026  -13.5055 S   0  0  0  0  0  0  0  0  0  0  0  0
   -0.8997  -18.9468  -10.1225 C   0  0  0  0  0  0  0  0  0  0  0  0
   -3.4121  -16.7900  -11.2012 C   0  0  0  0  0  0  0  0  0  0  0  0
   -1.3150  -21.9764  -11.3199 O   0  0  0  0  0  0  0  0  0  0  0  0
   -7.4524  -16.8987   -8.4716 C   0  0  0  0  0  0  0  0  0  0  0  0
  1 12  2  0
  1 14  1  0
  2  8  1  0
  2 21  2  0
  3  6  2  0
  3  8  1  0
  3 12  1  0
  4 13  2  0
  5 15  1  0
  6 19  1  0
  7 10  1  0
  7 15  1  0
  9 18  2  0
 10 14  1  0
 10 18  1  0
 11 18  1  0
 12 16  1  0
 13 17  1  0
 13 19  1  0
 14 19  1  0
 15 20  2  0
 16 21  1  0
M  END
>  <ID>  (1) 
conformer_0

$$$$
