
     RDKit          3D

 26 28  0  0  0  0  0  0  0  0999 V2000
   -7.4339  -14.7805   -7.9351 F   0  0  0  0  0  0  0  0  0  0  0  0
   -0.5288  -20.5934  -10.3954 C   0  0  0  0  0  0  0  0  0  0  0  0
   -1.7965  -18.4605  -10.5925 C   0  0  0  0  0  0  0  0  0  0  0  0
   -2.5000  -17.7783   -9.4946 C   0  0  0  0  0  0  0  0  0  0  0  0
   -4.6892  -16.6496   -9.2742 C   0  0  0  0  0  0  0  0  0  0  0  0
   -1.9911  -20.3923  -12.2323 C   0  0  0  0  0  0  0  0  0  0  0  0
   -6.7227  -15.8169   -8.4613 C   0  0  0  0  0  0  0  0  0  0  0  0
   -4.8698  -14.4758   -8.1170 F   0  0  0  0  0  0  0  0  0  0  0  0
   -6.6225  -18.0086   -9.4465 C   0  0  0  0  0  0  0  0  0  0  0  0
   -1.5310  -17.6258   -8.4897 O   0  0  0  0  0  0  0  0  0  0  0  0
   -3.2908  -16.5405   -9.5313 C   0  0  0  0  0  0  0  0  0  0  0  0
   -1.5361  -17.3481  -11.5644 N   0  0  0  0  0  0  0  0  0  0  0  0
   -1.7250  -21.6533  -12.6581 C   0  0  0  0  0  0  0  0  0  0  0  0
   -2.7607  -15.3260   -9.3415 O   0  0  0  0  0  0  0  0  0  0  0  0
   -1.4433  -19.8072  -11.1078 C   0  0  0  0  0  0  0  0  0  0  0  0
   -3.9349  -17.9538  -11.8324 C   0  0  0  0  0  0  0  0  0  0  0  0
   -2.0390  -17.9041  -13.8285 C   0  0  0  0  0  0  0  0  0  0  0  0
   -5.3649  -15.6524   -8.6460 C   0  0  0  0  0  0  0  0  0  0  0  0
   -2.9068  -15.9843  -12.8013 O   0  0  0  0  0  0  0  0  0  0  0  0
   -0.8369  -22.4097  -11.9500 C   0  0  0  0  0  0  0  0  0  0  0  0
   -4.5818  -18.7400  -10.6656 C   0  0  0  0  0  0  0  0  0  0  0  0
   -0.2375  -21.8747  -10.8347 C   0  0  0  0  0  0  0  0  0  0  0  0
   -2.6623  -17.2974  -12.5142 C   0  0  0  0  0  0  0  0  0  0  0  0
   -7.3315  -16.9947   -8.7887 C   0  0  0  0  0  0  0  0  0  0  0  0
   -5.2856  -17.8034   -9.7331 C   0  0  0  0  0  0  0  0  0  0  0  0
   -2.8962  -17.6997  -14.8519 O   0  0  0  0  0  0  0  0  0  0  0  0
  1  7  1  0
  2 15  2  0
  2 22  1  0
  3  4  1  0
  3 12  1  0
  3 15  1  0
  4 10  1  0
  4 11  1  0
  5 11  1  0
  5 18  1  0
  5 25  2  0
  6 13  2  0
  6 15  1  0
  7 18  2  0
  7 24  1  0
  8 18  1  0
  9 24  2  0
  9 25  1  0
 11 14  1  0
 12 23  1  0
 13 20  1  0
 16 21  1  0
 16 23  1  0
 17 23  1  0
 17 26  1  0
 19 23  1  0
 20 22  2  0
 21 25  1  0
M  END
>  <ID>  (1) 
conformer_0

$$$$
