
     RDKit          3D

 15 15  0  0  0  0  0  0  0  0999 V2000
  -23.3259  -33.6626   39.3536 C   0  0  0  0  0  0  0  0  0  0  0  0
  -24.3174  -33.5737   37.0705 C   0  0  0  0  0  0  0  0  0  0  0  0
  -21.8083  -33.6573   37.5923 N   0  0  0  0  0  0  0  0  0  0  0  0
  -23.7894  -33.6671   40.6205 C   0  0  0  0  0  0  0  0  0  0  0  0
  -25.4056  -33.3618   36.3273 O   0  0  0  0  0  0  0  0  0  0  0  0
  -23.7900  -34.2427   41.6596 O   0  0  0  0  0  0  0  0  0  0  0  0
  -22.8741  -33.5858   36.7815 C   0  0  0  0  0  0  0  0  0  0  0  0
  -24.9045  -35.2106   42.8466 P   0  0  0  0  0  0  0  0  0  0  0  0
  -22.7782  -33.4929   35.2337 C   0  0  0  0  0  0  0  0  0  0  0  0
  -24.0817  -34.9837   44.0214 O   0  0  0  0  0  0  0  0  0  0  0  0
  -25.9200  -34.4726   42.3509 O   0  0  0  0  0  0  0  0  0  0  0  0
  -24.3563  -33.6438   38.6056 C   0  0  0  0  0  0  0  0  0  0  0  0
  -25.9012  -33.5372   39.1534 C   0  0  0  0  0  0  0  0  0  0  0  0
  -21.9773  -33.6755   38.7938 C   0  0  0  0  0  0  0  0  0  0  0  0
  -25.0024  -36.3943   42.7428 O   0  0  0  0  0  0  0  0  0  0  0  0
  4  1  1  0
  5  2  1  0
  6  4  1  0
  7  2  2  0
  7  3  1  0
  9  7  1  0
 10  8  1  0
 11  4  1  0
 11  8  1  0
 12  1  2  0
 12  2  1  0
 13 12  1  0
 14  1  1  0
 14  3  2  0
 15  8  1  0
M  END
>  <ID>  (1) 
conformer_0

$$$$
