
     RDKit          3D

 16 18  0  0  0  0  0  0  0  0999 V2000
  -24.2731  -33.7548   37.4672 C   0  0  0  0  0  3  0  0  0  0  0  0
  -24.5069  -33.8278   39.0032 C   0  0  0  0  0  0  0  0  0  0  0  0
  -21.8365  -33.5950   37.7719 N   0  0  0  0  0  0  0  0  0  0  0  0
  -24.8318  -34.7851   43.0107 P   0  0  0  0  0  0  0  0  0  0  0  0
  -22.7398  -33.6719   35.3659 C   0  0  0  0  0  0  0  0  0  0  0  0
  -22.8141  -33.6988   40.9952 C   0  0  0  0  0  0  0  0  0  0  0  0
  -23.8721  -34.3858   41.8439 O   0  0  0  0  0  0  0  0  0  0  0  0
  -25.4093  -33.5572   36.7440 O   0  0  0  0  0  0  0  0  0  0  0  0
  -22.8003  -33.6102   36.9923 C   0  0  0  0  0  0  0  0  0  0  0  0
  -24.1759  -34.2548   44.1203 O   0  0  0  0  0  0  0  0  0  0  0  0
  -26.0807  -34.3235   42.4751 O   0  0  0  0  0  0  0  0  0  0  0  0
  -26.2467  -33.9013   39.3477 C   0  0  0  0  0  0  0  0  0  0  0  0
  -24.7451  -36.0794   43.1307 O   0  0  0  0  0  0  0  0  0  0  0  0
  -23.1961  -33.7756   39.6057 C   0  0  0  0  0  0  0  0  0  0  0  0
  -22.0702  -33.6683   38.8946 C   0  0  0  0  0  3  0  0  0  0  0  0
  -24.7641  -34.0319   40.3891 C   0  0  0  0  0  0  0  0  0  0  0  0
  2  1  1  0
  7  6  1  0
  8  1  1  0
  9  1  1  0
  9  3  2  0
  9  5  1  0
 10  4  1  0
 11  4  1  0
 12  2  1  0
 13  4  1  0
 14  2  1  0
 14  6  1  0
 15  3  1  0
 15 14  1  0
 16  2  1  0
 16 11  1  0
 16 12  1  0
 16 14  1  0
M  RAD  2   1   2  15   2
M  END
>  <ID>  (1) 
conformer_0

$$$$
