
     RDKit          3D

 15 15  0  0  0  0  0  0  0  0999 V2000
  -23.2974  -33.6560   39.3277 C   0  0  0  0  0  0  0  0  0  0  0  0
  -24.3830  -33.6074   37.1567 C   0  0  0  0  0  0  0  0  0  0  0  0
  -22.6878  -33.3922   35.2065 C   0  0  0  0  0  0  0  0  0  0  0  0
  -25.4450  -33.3976   36.3878 O   0  0  0  0  0  0  0  0  0  0  0  0
  -25.6569  -33.7837   39.4868 C   0  0  0  0  0  0  0  0  0  0  0  0
  -22.1293  -33.5251   37.4858 N   0  0  0  0  0  0  0  0  0  0  0  0
  -23.7863  -34.4567   41.7131 O   0  0  0  0  0  0  0  0  0  0  0  0
  -24.7562  -35.0924   42.7304 P   0  0  0  0  0  0  0  0  0  0  0  0
  -23.8494  -33.6955   40.6243 C   0  0  0  0  0  0  0  0  0  0  0  0
  -25.9922  -34.3394   42.5224 O   0  0  0  0  0  0  0  0  0  0  0  0
  -22.0592  -33.6502   38.7183 C   0  0  0  0  0  0  0  0  0  0  0  0
  -24.0099  -35.0589   44.0000 O   0  0  0  0  0  0  0  0  0  0  0  0
  -24.4452  -33.7086   38.6443 C   0  0  0  0  0  0  0  0  0  0  0  0
  -24.9703  -36.3825   42.5375 O   0  0  0  0  0  0  0  0  0  0  0  0
  -22.7654  -33.4441   36.8087 C   0  0  0  0  0  0  0  0  0  0  0  0
  4  2  1  0
  9  1  1  0
  9  7  1  0
 10  8  1  0
 10  9  1  0
 11  1  2  0
 11  6  1  0
 12  8  1  0
 13  1  1  0
 13  2  2  0
 13  5  1  0
 14  8  1  0
 15  2  1  0
 15  3  1  0
 15  6  2  0
M  END
>  <ID>  (1) 
conformer_0

$$$$
