
     RDKit          3D

 15 16  0  0  0  0  0  0  0  0999 V2000
  -24.4919  -33.7141   38.6486 C   0  0  0  0  0  0  0  0  0  0  0  0
  -22.9372  -33.4256   36.7071 C   0  0  0  0  0  0  0  0  0  0  0  0
  -22.2261  -33.5035   37.3776 N   0  0  0  0  0  0  0  0  0  0  0  0
  -23.1700  -33.4470   35.2399 C   0  0  0  0  0  0  0  0  0  0  0  0
  -24.8640  -35.1184   42.7170 P   0  0  0  0  0  0  0  0  0  0  0  0
  -23.9088  -34.7413   41.5180 O   0  0  0  0  0  0  0  0  0  0  0  0
  -22.0993  -33.6076   38.8357 C   0  0  0  0  0  0  0  0  0  0  0  0
  -25.4514  -33.5223   36.5887 O   0  0  0  0  0  0  0  0  0  0  0  0
  -24.0307  -34.7207   43.8056 O   0  0  0  0  0  0  0  0  0  0  0  0
  -24.1838  -33.8132   40.4844 C   0  0  0  0  0  0  0  0  0  0  0  0
  -25.8369  -33.7375   39.4303 C   0  0  0  0  0  0  0  0  0  0  0  0
  -26.0595  -34.3622   42.2474 O   0  0  0  0  0  0  0  0  0  0  0  0
  -24.9611  -36.4465   42.7389 O   0  0  0  0  0  0  0  0  0  0  0  0
  -23.2820  -33.7440   39.4111 C   0  0  0  0  0  3  0  0  0  0  0  0
  -24.4175  -33.7534   37.3132 C   0  0  0  0  0  0  0  0  0  0  0  0
  3  2  1  0
  4  2  1  0
  7  3  2  0
  9  5  1  0
 10  1  1  0
 10  6  1  0
 11  1  1  0
 12  5  1  0
 12 10  1  0
 13  5  1  0
 14  1  1  0
 14  7  1  0
 14 10  1  0
 15  1  1  0
 15  2  2  0
 15  8  1  0
M  RAD  1  14   2
M  END
>  <ID>  (1) 
conformer_0

$$$$
