
     RDKit          3D

 15 15  0  0  0  0  0  0  0  0999 V2000
  -24.6282  -33.7857   38.6508 C   0  0  0  0  0  0  0  0  0  0  0  0
  -24.5621  -33.6235   37.0792 C   0  0  0  0  0  0  0  0  0  0  0  0
  -22.6287  -33.6152   35.2846 C   0  0  0  0  0  0  0  0  0  0  0  0
  -24.6353  -34.8238   42.8936 P   0  0  0  0  0  0  0  0  0  0  0  0
  -23.8247  -34.1232   41.9270 O   0  0  0  0  0  0  0  0  0  0  0  0
  -23.8089  -34.0080   40.6720 C   0  0  0  0  0  0  0  0  0  0  0  0
  -23.8268  -35.0840   43.9951 O   0  0  0  0  0  0  0  0  0  0  0  0
  -25.8991  -33.6333   39.5082 C   0  0  0  0  0  0  0  0  0  0  0  0
  -22.4146  -33.5466   37.3522 N   0  0  0  0  0  0  0  0  0  0  0  0
  -25.2330  -33.4546   36.3234 O   0  0  0  0  0  0  0  0  0  0  0  0
  -25.7944  -34.3427   43.0237 O   0  0  0  0  0  0  0  0  0  0  0  0
  -22.2898  -33.6307   38.5675 C   0  0  0  0  0  0  0  0  0  0  0  0
  -23.4582  -33.7672   39.3092 C   0  0  0  0  0  0  0  0  0  0  0  0
  -24.9402  -36.2753   42.3733 O   0  0  0  0  0  0  0  0  0  0  0  0
  -22.9430  -33.4881   36.6334 C   0  0  0  0  0  0  0  0  0  0  0  0
  2  1  2  0
  6  5  2  0
  7  4  1  0
  8  1  1  0
 10  2  1  0
 11  4  1  0
 11  6  1  0
 12  9  1  0
 13  1  1  0
 13  6  1  0
 13 12  2  0
 14  4  1  0
 15  2  1  0
 15  3  1  0
 15  9  2  0
M  END
>  <ID>  (1) 
conformer_0

$$$$
