
     RDKit          3D

 15 16  0  0  0  0  0  0  0  0999 V2000
  -24.5193  -33.9472   38.7475 C   0  0  0  0  0  0  0  0  0  0  0  0
  -24.1238  -33.7355   37.2047 C   0  0  0  0  0  3  0  0  0  0  0  0
  -24.7754  -34.8868   42.5562 P   0  0  0  0  0  0  0  0  0  0  0  0
  -21.9438  -33.5641   37.8569 N   0  0  0  0  0  0  0  0  0  0  0  0
  -22.5273  -33.2448   35.3940 C   0  0  0  0  0  0  0  0  0  0  0  0
  -23.7454  -34.2659   41.5781 O   0  0  0  0  0  1  0  0  0  0  0  0
  -25.1275  -33.5208   36.5492 O   0  0  0  0  0  0  0  0  0  0  0  0
  -26.0215  -34.1914   42.1866 O   0  0  0  0  0  0  0  0  0  0  0  0
  -22.1533  -33.7200   38.9321 C   0  0  0  0  0  0  0  0  0  0  0  0
  -24.0663  -34.6955   43.8229 O   0  0  0  0  0  0  0  0  0  0  0  0
  -25.8818  -33.7221   39.4534 C   0  0  0  0  0  0  0  0  0  0  0  0
  -24.1837  -34.2167   40.4556 C   0  0  0  0  0  0  0  0  0  0  0  0
  -25.0791  -36.1658   42.5583 O   0  0  0  0  0  0  0  0  0  0  0  0
  -23.4041  -34.0301   39.4651 C   0  0  0  0  0  0  0  0  0  0  0  0
  -22.6552  -33.3882   36.8568 C   0  0  0  0  0  0  0  0  0  0  0  0
  2  1  1  0
  7  2  1  0
  8  3  1  0
  9  4  1  0
 10  3  1  0
 11  1  1  0
 12  1  1  0
 12  6  1  0
 12  8  1  0
 13  3  1  0
 14  1  1  0
 14  9  2  0
 14 12  1  0
 15  2  1  0
 15  4  2  0
 15  5  1  0
M  RAD  2   2   2   6   2
M  END
>  <ID>  (1) 
conformer_0

$$$$
