
     RDKit          3D

 17 18  0  0  0  0  0  0  0  0999 V2000
  -23.1932  -33.6714   39.3570 C   0  0  0  0  0  0  0  0  0  0  0  0
  -23.0412  -33.4917   36.6720 C   0  0  0  0  0  0  0  0  0  0  0  0
  -22.8997  -33.4695   40.7925 C   0  0  0  0  0  0  0  0  0  0  0  0
  -22.6247  -33.5128   35.1214 C   0  0  0  0  0  0  0  0  0  0  0  0
  -25.4238  -33.4937   36.2743 O   0  0  0  0  0  0  0  0  0  0  0  0
  -24.7258  -34.9644   43.0356 P   0  0  0  0  0  0  0  0  0  0  0  0
  -23.8136  -34.6964   44.0183 O   0  0  0  0  0  0  0  0  0  0  0  0
  -24.3969  -35.1638   41.4896 O   0  0  0  0  0  0  0  0  0  0  0  0
  -22.3429  -33.4098   37.3251 N   0  0  0  0  0  0  0  0  0  0  0  0
  -24.5573  -33.6157   37.1787 C   0  0  0  0  0  0  0  0  0  0  0  0
  -26.0554  -34.7324   43.0479 O   0  0  0  0  0  0  0  0  0  0  0  0
  -21.1023  -33.6434   38.2693 O   0  0  0  0  0  0  0  0  0  0  0  0
  -24.4831  -33.7817   38.7809 C   0  0  0  0  0  0  0  0  0  0  0  0
  -24.6618  -36.4896   43.1190 O   0  0  0  0  0  0  0  0  0  0  0  0
  -22.1939  -33.6017   38.3889 C   0  0  0  0  0  0  0  0  0  0  0  0
  -24.7387  -34.0005   40.3383 C   0  0  0  0  0  0  0  0  0  0  0  0
  -23.6863  -33.5672   42.0740 O   0  0  0  0  0  0  0  0  0  0  0  0
  3  1  1  0
  4  2  1  0
  7  6  1  0
  9  2  1  0
 10  2  2  0
 10  5  1  0
 11  6  1  0
 13  1  1  0
 13 10  1  0
 14  6  1  0
 15  1  1  0
 15  9  2  0
 15 12  1  0
 16  1  1  0
 16  8  1  0
 16 11  1  0
 16 13  1  0
 17  3  1  0
M  END
>  <ID>  (1) 
conformer_0

$$$$
