
     RDKit          3D

 15 15  0  0  0  0  0  0  0  0999 V2000
  -24.5659  -33.5232   37.0503 C   0  0  0  0  0  0  0  0  0  0  0  0
  -23.4252  -33.7366   39.3070 C   0  0  0  0  0  0  0  0  0  0  0  0
  -22.6022  -33.2845   35.2001 C   0  0  0  0  0  0  0  0  0  0  0  0
  -22.1320  -33.3988   37.5000 N   0  0  0  0  0  0  0  0  0  0  0  0
  -25.4496  -33.4064   36.1368 O   0  0  0  0  0  0  0  0  0  0  0  0
  -24.7756  -35.1689   42.9965 P   0  0  0  0  0  0  0  0  0  0  0  0
  -23.7342  -33.7987   40.6546 C   0  0  0  0  0  0  0  0  0  0  0  0
  -23.8758  -34.3250   41.9916 O   0  0  0  0  0  0  0  0  0  0  0  0
  -24.9518  -36.3924   42.4735 O   0  0  0  0  0  0  0  0  0  0  0  0
  -23.0071  -33.3938   36.6110 C   0  0  0  0  0  0  0  0  0  0  0  0
  -23.8063  -35.1755   44.1280 O   0  0  0  0  0  0  0  0  0  0  0  0
  -25.9463  -34.4394   42.9319 O   0  0  0  0  0  0  0  0  0  0  0  0
  -26.2784  -33.5182   38.5571 C   0  0  0  0  0  0  0  0  0  0  0  0
  -24.6436  -33.6831   38.5378 C   0  0  0  0  0  0  0  0  0  0  0  0
  -22.3323  -33.5389   38.5247 C   0  0  0  0  0  0  0  0  0  0  0  0
  5  1  1  0
  7  2  1  0
  8  7  2  0
  9  6  1  0
 10  1  2  0
 10  3  1  0
 10  4  1  0
 11  6  1  0
 12  6  1  0
 12  7  1  0
 14  1  1  0
 14  2  2  0
 14 13  1  0
 15  2  1  0
 15  4  2  0
M  END
>  <ID>  (1) 
conformer_0

$$$$
