
     RDKit          3D

 16 17  0  0  0  0  0  0  0  0999 V2000
  -23.0452  -33.7838   39.4335 C   0  0  0  0  0  0  0  0  0  0  0  0
  -22.7153  -33.4989   36.7461 C   0  0  0  0  0  0  0  0  0  0  0  0
  -21.6890  -33.6610   37.6372 N   0  0  0  0  0  0  0  0  0  0  0  0
  -22.8661  -33.6331   40.9176 C   0  0  0  0  0  0  0  0  0  0  0  0
  -24.8031  -35.1961   42.9875 P   0  0  0  0  0  0  0  0  0  0  0  0
  -22.7557  -33.4129   35.2057 C   0  0  0  0  0  0  0  0  0  0  0  0
  -23.8006  -34.6890   41.6380 O   0  0  0  0  0  0  0  0  0  0  0  0
  -25.5067  -33.3244   36.4744 O   0  0  0  0  0  0  0  0  0  0  0  0
  -21.8909  -33.7006   38.7989 C   0  0  0  0  0  3  0  0  0  0  0  0
  -24.0949  -34.7038   43.9355 O   0  0  0  0  0  0  0  0  0  0  0  0
  -26.0441  -34.7255   42.5016 O   0  0  0  0  0  0  0  0  0  0  0  0
  -26.6409  -33.3956   38.9400 C   0  0  0  0  0  0  0  0  0  0  0  0
  -24.8929  -36.5967   42.9415 O   0  0  0  0  0  0  0  0  0  0  0  0
  -24.1767  -33.7998   38.6288 C   0  0  0  0  0  3  0  0  0  0  0  0
  -24.2322  -33.6626   37.1803 C   0  0  0  0  0  0  0  0  0  0  0  0
  -24.6755  -34.0366   39.9691 C   0  0  0  0  0  0  0  0  0  0  0  0
  3  2  2  0
  4  1  1  0
  6  2  1  0
  7  4  1  0
  9  1  1  0
  9  3  1  0
 10  5  1  0
 11  5  1  0
 13  5  1  0
 14  1  1  0
 15  2  1  0
 15  8  1  0
 15 12  1  0
 15 14  1  0
 16  1  1  0
 16 11  1  0
 16 14  1  0
M  RAD  2   9   2  14   2
M  END
>  <ID>  (1) 
conformer_0

$$$$
