
     RDKit          3D

 15 16  0  0  0  0  0  0  0  0999 V2000
  -24.2619  -33.9381   37.5076 C   0  0  0  0  0  0  0  0  0  0  0  0
  -22.9197  -33.7877   39.5861 C   0  0  0  0  0  0  0  0  0  0  0  0
  -21.6897  -33.4794   37.7251 N   0  0  0  0  0  0  0  0  0  0  0  0
  -23.8609  -34.0276   41.6727 O   0  0  0  0  0  0  0  0  0  0  0  0
  -22.8601  -33.5722   35.4487 C   0  0  0  0  0  0  0  0  0  0  0  0
  -24.7366  -34.7761   42.7305 P   0  0  0  0  0  0  0  0  0  0  0  0
  -23.8491  -33.8511   40.5158 C   0  0  1  0  0  0  0  0  0  0  0  0
  -24.0406  -34.7467   43.9059 O   0  0  0  0  0  0  0  0  0  0  0  0
  -22.0871  -33.6314   38.8584 C   0  0  0  0  0  0  0  0  0  0  0  0
  -26.0462  -34.1606   42.3603 O   0  0  0  0  0  0  0  0  0  0  0  0
  -25.2333  -33.8209   36.4684 O   0  0  0  0  0  0  0  0  0  0  0  0
  -24.8829  -35.9935   42.2664 O   0  0  0  0  0  0  0  0  0  0  0  0
  -23.9830  -33.7654   37.3716 N   0  0  0  0  0  0  0  0  0  0  0  0
  -22.8902  -33.4823   36.8054 C   0  0  0  0  0  0  0  0  0  0  0  0
  -24.3555  -34.0642   38.9168 C   0  0  0  0  0  0  0  0  0  0  0  0
  7  2  1  0
  7  4  1  6
  8  6  1  0
  9  2  1  0
  9  3  2  0
 10  6  1  0
 10  7  1  0
 11  1  1  0
 12  6  1  0
 13  1  2  0
 14  3  1  0
 14  5  2  3
 14 13  1  0
 15  1  1  0
 15  2  2  0
 15  7  1  0
M  END
>  <ID>  (1) 
conformer_0

$$$$
