
     RDKit          3D

 15 15  0  0  0  0  0  0  0  0999 V2000
  -23.2072  -33.6718   39.2994 C   0  0  0  0  0  0  0  0  0  0  0  0
  -22.7509  -33.5143   36.5468 C   0  0  0  0  0  0  0  0  0  0  0  0
  -22.6441  -33.3873   35.0823 C   0  0  0  0  0  0  0  0  0  0  0  0
  -23.7953  -33.8296   40.6491 C   0  0  0  0  0  0  0  0  0  0  0  0
  -22.0937  -33.4358   37.2944 N   0  0  0  0  0  0  0  0  0  0  0  0
  -26.0656  -34.2496   42.7285 O   0  0  0  0  0  0  0  0  0  0  0  0
  -22.0132  -33.4719   38.6368 C   0  0  0  0  0  0  0  0  0  0  0  0
  -24.9462  -35.0805   43.0156 P   0  0  0  0  0  0  0  0  0  0  0  0
  -25.1031  -33.9011   36.2118 O   0  0  0  0  0  0  0  0  0  0  0  0
  -24.0004  -35.0677   44.1593 O   0  0  0  0  0  0  0  0  0  0  0  0
  -24.0071  -34.4897   41.9272 O   0  0  0  0  0  0  0  0  0  0  0  0
  -25.5829  -34.0199   39.5368 C   0  0  0  0  0  0  0  0  0  0  0  0
  -25.1115  -36.2935   42.5719 O   0  0  0  0  0  0  0  0  0  0  0  0
  -24.3501  -33.8532   38.5994 C   0  0  0  0  0  0  0  0  0  0  0  0
  -24.2230  -33.9172   37.1765 C   0  0  0  0  0  0  0  0  0  0  0  0
  3  2  1  0
  4  1  1  0
  5  2  2  0
  6  4  1  0
  7  1  2  0
  7  5  1  0
  8  6  1  0
 10  8  1  0
 11  4  2  0
 13  8  1  0
 14  1  1  0
 14 12  1  0
 15  2  1  0
 15  9  1  0
 15 14  2  0
M  END
>  <ID>  (1) 
conformer_0

$$$$
