
     RDKit          3D

 15 15  0  0  0  0  0  0  0  0999 V2000
  -24.1603  -33.8165   37.1706 C   0  0  0  0  0  0  0  0  0  0  0  0
  -24.4285  -33.8562   38.5265 C   0  0  0  0  0  0  0  0  0  0  0  0
  -21.9935  -33.3480   37.8748 N   0  0  0  0  0  0  0  0  0  0  0  0
  -23.8567  -34.5381   41.8644 O   0  0  0  0  0  0  0  0  0  0  0  0
  -22.2414  -33.6592   39.0969 C   0  0  0  0  0  0  0  0  0  0  0  0
  -22.6367  -33.6256   35.2503 C   0  0  0  0  0  0  0  0  0  0  0  0
  -24.7905  -35.0212   43.2041 P   0  0  0  0  0  0  0  0  0  0  0  0
  -24.1653  -33.9697   40.7161 C   0  0  0  0  0  0  0  0  0  0  0  0
  -25.2936  -33.8319   36.2582 O   0  0  0  0  0  0  0  0  0  0  0  0
  -24.0998  -34.5658   44.3640 O   0  0  0  0  0  0  0  0  0  0  0  0
  -26.0839  -34.9953   43.1104 O   0  0  0  0  0  0  0  0  0  0  0  0
  -25.8344  -33.7613   39.4438 C   0  0  0  0  0  0  0  0  0  0  0  0
  -24.6351  -36.3004   43.1548 O   0  0  0  0  0  0  0  0  0  0  0  0
  -22.6061  -33.4139   37.0431 C   0  0  0  0  0  0  0  0  0  0  0  0
  -23.5470  -33.7692   39.6700 C   0  0  0  0  0  0  0  0  0  0  0  0
  2  1  2  0
  5  3  1  0
  8  4  2  0
  9  1  1  0
 10  7  1  0
 11  7  1  0
 11  8  1  0
 12  2  1  0
 13  7  1  0
 14  1  1  0
 14  3  2  0
 14  6  1  0
 15  2  1  0
 15  5  2  0
 15  8  1  0
M  END
>  <ID>  (1) 
conformer_0

$$$$
