
     RDKit          3D

 16 16  0  0  0  0  0  0  0  0999 V2000
  -24.2896  -33.9701   38.6949 C   0  0  0  0  0  0  0  0  0  0  0  0
  -24.2028  -33.8561   37.2030 C   0  0  0  0  0  0  0  0  0  0  0  0
  -21.8496  -33.6472   37.4893 N   0  0  0  0  0  0  0  0  0  0  0  0
  -22.8344  -34.0569   40.7547 C   0  0  0  0  0  0  0  0  0  0  0  0
  -22.7862  -33.5527   35.1414 C   0  0  0  0  0  0  0  0  0  0  0  0
  -25.0013  -34.4657   43.1084 P   0  0  0  0  0  0  0  0  0  0  0  0
  -26.4187  -34.1022   42.7879 O   0  0  0  0  0  0  0  0  0  0  0  0
  -24.5489  -35.7384   43.4484 O   0  0  0  0  0  0  0  0  0  0  0  0
  -25.1212  -33.6570   36.7681 O   0  0  0  0  0  0  0  0  0  0  0  0
  -21.9202  -33.8627   38.6809 C   0  0  0  0  0  0  0  0  0  0  0  0
  -26.0943  -33.7431   39.5645 C   0  0  0  0  0  0  0  0  0  0  0  0
  -24.3494  -34.3955   42.0744 O   0  0  0  0  0  0  0  0  0  0  0  0
  -24.3706  -33.7774   44.1798 O   0  0  0  0  0  0  0  0  0  0  0  0
  -23.0272  -34.0047   39.3607 C   0  0  0  0  0  0  0  0  0  0  0  0
  -22.6724  -33.5163   36.7357 C   0  0  0  0  0  0  0  0  0  0  0  0
  -24.6658  -34.1482   40.5421 C   0  0  0  0  0  0  0  0  0  0  0  0
  2  1  2  0
  8  6  1  0
  9  2  1  0
 10  3  1  0
 12  6  1  0
 13  6  1  0
 14  1  1  0
 14  4  1  0
 14 10  2  0
 15  2  1  0
 15  3  2  0
 15  5  1  0
 16  4  1  0
 16  7  1  0
 16 11  1  0
 16 12  1  0
M  END
>  <ID>  (1) 
conformer_0

$$$$
