
     RDKit          3D

 15 15  0  0  0  0  0  0  0  0999 V2000
  -24.2033  -33.6691   38.6535 C   0  0  0  0  0  0  0  0  0  0  0  0
  -24.0273  -33.5926   37.1846 C   0  0  0  0  0  0  0  0  0  0  0  0
  -21.8110  -33.6487   37.6741 N   0  0  0  0  0  0  0  0  0  0  0  0
  -21.8222  -33.8188   39.2278 C   0  0  0  0  0  0  0  0  0  0  0  0
  -25.7912  -33.5459   39.2789 C   0  0  0  0  0  0  0  0  0  0  0  0
  -22.6796  -33.4515   35.3120 C   0  0  0  0  0  0  0  0  0  0  0  0
  -24.9322  -35.1833   42.9269 P   0  0  0  0  0  0  0  0  0  0  0  0
  -25.0956  -33.4061   36.5278 O   0  0  0  0  0  0  0  0  0  0  0  0
  -24.0355  -34.6009   41.6640 O   0  0  0  0  0  0  0  0  0  0  0  0
  -24.0812  -34.8599   43.9772 O   0  0  0  0  0  0  0  0  0  0  0  0
  -24.1369  -33.7934   40.6703 C   0  0  0  0  0  0  0  0  0  0  0  0
  -25.0882  -36.6164   42.6418 O   0  0  0  0  0  0  0  0  0  0  0  0
  -26.1129  -34.5849   42.6985 O   0  0  0  0  0  0  0  0  0  0  0  0
  -23.1431  -33.6924   39.5896 C   0  0  0  0  0  0  0  0  0  0  0  0
  -22.4794  -33.5048   37.1136 C   0  0  0  0  0  0  0  0  0  0  0  0
  2  1  2  0
  4  3  1  0
  5  1  1  0
  8  2  1  0
 10  7  1  0
 11  9  1  0
 12  7  1  0
 13  7  1  0
 13 11  1  0
 14  1  1  0
 14  4  2  0
 14 11  1  0
 15  2  1  0
 15  3  2  0
 15  6  1  0
M  END
>  <ID>  (1) 
conformer_0

$$$$
