
     RDKit          3D

 15 16  0  0  0  0  0  0  0  0999 V2000
  -24.1789  -33.7654   38.5803 C   0  0  0  0  0  0  0  0  0  0  0  0
  -24.1790  -33.7062   37.0990 C   0  0  0  0  0  0  0  0  0  0  0  0
  -24.1078  -33.7910   40.7461 C   0  0  0  0  0  0  0  0  0  0  0  0
  -23.8794  -34.5830   41.9733 O   0  0  0  0  0  0  0  0  0  0  0  0
  -21.7859  -33.5272   37.6097 N   0  0  0  0  0  0  0  0  0  0  0  0
  -22.3092  -33.6836   35.0656 C   0  0  0  0  0  0  0  0  0  0  0  0
  -24.9495  -35.0177   43.2017 P   0  0  0  0  0  0  0  0  0  0  0  0
  -21.8421  -33.6579   38.8979 C   0  0  0  0  0  0  0  0  0  0  0  0
  -25.1097  -33.5002   36.2642 O   0  0  0  0  0  0  0  0  0  0  0  0
  -24.3512  -34.4338   44.2544 O   0  0  0  0  0  0  0  0  0  0  0  0
  -26.0038  -34.4574   42.6274 O   0  0  0  0  0  0  0  0  0  0  0  0
  -25.1148  -36.3300   43.0251 O   0  0  0  0  0  0  0  0  0  0  0  0
  -25.6208  -33.8797   39.5406 C   0  0  0  0  0  0  0  0  0  0  0  0
  -23.1278  -33.7369   39.4706 C   0  0  0  0  0  0  0  0  0  0  0  0
  -22.5555  -33.4932   36.8545 C   0  0  0  0  0  0  0  0  0  0  0  0
  2  1  2  0
  4  3  1  0
  8  5  1  0
  9  2  1  0
 10  7  1  0
 11  3  1  0
 11  7  1  0
 12  7  1  0
 13  1  1  0
 13  3  1  0
 14  1  1  0
 14  3  1  0
 14  8  2  0
 15  2  1  0
 15  5  2  0
 15  6  1  0
M  END
>  <ID>  (1) 
conformer_0

$$$$
