
     RDKit          3D

 16 16  0  0  0  0  0  0  0  0999 V2000
  -24.4202  -33.8746   38.4326 C   0  0  0  0  0  0  0  0  0  0  0  0
  -22.7879  -33.5255   36.5826 C   0  0  0  0  0  0  0  0  0  0  0  0
  -22.1584  -33.4503   37.4887 N   0  0  0  0  0  0  0  0  0  0  0  0
  -22.4697  -33.4505   35.1116 C   0  0  0  0  0  0  0  0  0  0  0  0
  -24.6957  -34.9288   43.0681 P   0  0  0  0  0  0  0  0  0  0  0  0
  -23.5895  -33.4539   42.3322 O   0  0  0  0  0  0  0  0  0  0  0  0
  -24.1346  -34.0900   40.5192 C   0  0  0  0  0  0  0  0  0  0  0  0
  -22.1220  -33.5221   38.6092 C   0  0  0  0  0  0  0  0  0  0  0  0
  -25.4507  -33.6740   36.2003 O   0  0  0  0  0  0  0  0  0  0  0  0
  -24.0612  -34.5718   44.1594 O   0  0  0  0  0  0  0  0  0  0  0  0
  -26.1584  -34.5783   42.7960 O   0  0  0  0  0  0  0  0  0  0  0  0
  -25.5155  -33.7589   39.5554 C   0  0  0  0  0  0  0  0  0  0  0  0
  -23.1915  -33.7897   39.3984 C   0  0  0  0  0  0  0  0  0  0  0  0
  -24.2755  -35.1891   41.6465 O   0  0  0  0  0  0  0  0  0  0  0  0
  -24.7129  -36.3279   43.4986 O   0  0  0  0  0  0  0  0  0  0  0  0
  -24.3658  -33.8680   37.0542 C   0  0  0  0  0  0  0  0  0  0  0  0
  3  2  1  0
  4  2  1  0
  7  6  1  0
  8  3  2  0
 10  5  1  0
 11  7  1  0
 12  1  1  0
 13  1  2  0
 13  7  1  0
 13  8  1  0
 14  5  1  0
 14  7  1  0
 15  5  1  0
 16  1  1  0
 16  2  2  0
 16  9  1  0
M  END
>  <ID>  (1) 
conformer_0

$$$$
