
     RDKit          3D

 14 15  0  0  0  0  0  0  0  0999 V2000
  -24.2370  -33.7995   37.2019 C   0  0  0  0  0  0  0  0  0  0  0  0
  -24.3401  -33.9295   38.8227 C   0  0  0  0  0  0  0  0  0  0  0  0
  -23.7333  -34.4143   41.7555 O   0  0  0  0  0  0  0  0  0  0  0  0
  -24.8456  -34.8709   43.0088 P   0  0  0  0  0  0  0  0  0  0  0  0
  -24.1471  -33.8484   40.5559 C   0  0  0  0  0  0  0  0  0  0  0  0
  -22.7825  -33.6540   37.0269 C   0  0  0  0  0  0  0  0  0  0  0  0
  -22.3632  -33.7452   35.4294 C   0  0  0  0  0  0  0  0  0  0  0  0
  -25.2954  -33.5505   36.3932 O   0  0  0  0  0  0  0  0  0  0  0  0
  -21.9439  -33.3761   37.6935 N   0  0  0  0  0  0  0  0  0  0  0  0
  -24.1300  -34.1412   44.0527 O   0  0  0  0  0  0  0  0  0  0  0  0
  -25.9859  -34.5833   42.4374 O   0  0  0  0  0  0  0  0  0  0  0  0
  -23.1794  -33.7809   39.5406 C   0  0  0  0  0  0  0  0  0  0  0  0
  -21.9244  -33.6479   38.9102 C   0  0  0  0  0  0  0  0  0  0  0  0
  -24.7158  -35.8849   43.5518 O   0  0  0  0  0  0  0  0  0  0  0  0
  2  1  2  0
  5  2  1  0
  5  3  1  0
  6  1  1  0
  7  6  1  0
  8  1  1  0
  9  6  2  0
 10  4  1  0
 11  4  1  0
 11  5  1  0
 12  2  1  0
 12  5  1  0
 13  9  1  0
 13 12  2  0
 14  4  1  0
M  END
>  <ID>  (1) 
conformer_0

$$$$
