
     RDKit          3D

 17 17  0  0  0  0  0  0  0  0999 V2000
  -23.6700  -33.8064   39.3451 C   0  0  0  0  0  0  0  0  0  0  0  0
  -24.5106  -33.5496   36.9098 C   0  0  0  0  0  0  0  0  0  0  0  0
  -22.3904  -33.4353   35.0361 C   0  0  0  0  0  0  0  0  0  0  0  0
  -21.7526  -33.5526   37.8171 N   0  0  0  0  0  0  0  0  0  0  0  0
  -23.7943  -34.5470   41.9747 O   0  0  0  0  0  0  0  0  0  0  0  0
  -24.8924  -35.0336   43.1414 P   0  0  0  0  0  0  0  0  0  0  0  0
  -23.7325  -33.7957   40.7542 C   0  0  0  0  0  0  0  0  0  0  0  0
  -25.6059  -33.4129   36.1742 O   0  0  0  0  0  0  0  0  0  0  0  0
  -22.9084  -33.5140   36.5898 C   0  0  0  0  0  0  0  0  0  0  0  0
  -24.1861  -34.8173   44.4654 O   0  0  0  0  0  0  0  0  0  0  0  0
  -25.9424  -33.9408   42.6731 O   0  0  0  0  0  0  0  0  0  0  0  0
  -26.0202  -33.6259   39.1846 C   0  0  0  0  0  0  0  0  0  0  0  0
  -25.4240  -36.1576   43.1286 O   0  0  0  0  0  0  0  0  0  0  0  0
  -21.5116  -33.8001   39.6523 O   0  0  0  0  0  0  0  0  0  0  0  0
  -24.7017  -33.7172   38.3946 C   0  0  0  0  0  0  0  0  0  0  0  0
  -22.3624  -33.7175   38.7768 C   0  0  0  0  0  0  0  0  0  0  0  0
  -23.6592  -33.2978   36.5614 N   0  0  0  0  0  0  0  0  0  0  0  0
  7  1  1  0
  7  5  1  0
  8  2  1  0
  9  3  1  0
  9  4  1  0
 10  6  1  0
 11  6  1  0
 11  7  1  0
 13  6  1  0
 15  1  2  0
 15  2  1  0
 15 12  1  0
 16  1  1  0
 16  4  2  0
 16 14  1  0
 17  2  2  0
 17  9  1  0
M  END
>  <ID>  (1) 
conformer_0

$$$$
