
     RDKit          3D

 16 18  0  0  0  0  0  0  0  0999 V2000
  -24.5331  -33.5523   37.0525 C   0  0  0  0  0  3  0  0  0  0  0  0
  -24.5567  -33.7992   38.3846 C   0  0  0  0  0  0  0  0  0  0  0  0
  -22.8630  -33.9528   40.6632 C   0  0  0  0  0  0  0  0  0  0  0  0
  -25.5762  -33.3782   36.2558 O   0  0  0  0  0  0  0  0  0  0  0  0
  -22.2577  -33.3195   37.3924 N   0  0  0  0  0  0  0  0  0  0  0  0
  -24.7038  -35.1805   42.9600 P   0  0  0  0  0  0  0  0  0  0  0  0
  -22.8972  -33.1309   35.2229 C   0  0  0  0  0  0  0  0  0  0  0  0
  -23.7610  -34.8301   41.7611 O   0  0  0  0  0  0  0  0  0  0  0  0
  -23.9952  -34.7465   44.0301 O   0  0  0  0  0  0  0  0  0  0  0  0
  -22.2737  -33.4708   38.5228 C   0  0  0  0  0  3  0  0  0  0  0  0
  -25.9147  -34.4341   42.4134 O   0  0  0  0  0  0  0  0  0  0  0  0
  -25.0996  -36.3835   42.9605 O   0  0  0  0  0  0  0  0  0  0  0  0
  -23.4006  -33.8113   39.3385 C   0  0  0  0  0  0  0  0  0  0  0  0
  -22.9567  -33.3020   36.5396 C   0  0  0  0  0  0  0  0  0  0  0  0
  -25.8591  -34.0186   39.2599 C   0  0  0  0  0  0  0  0  0  0  0  0
  -24.7147  -33.9837   40.1925 C   0  0  0  0  0  0  0  0  0  0  0  0
  2  1  1  0
  4  1  1  0
  8  3  1  0
  9  6  1  0
 10  5  1  0
 11  6  1  0
 12  6  1  0
 13  2  1  0
 13  3  1  0
 13 10  1  0
 14  1  1  0
 14  5  2  0
 14  7  1  0
 15  2  1  0
 16  2  1  0
 16 11  1  0
 16 13  1  0
 16 15  1  0
M  RAD  2   1   2  10   2
M  END
>  <ID>  (1) 
conformer_0

$$$$
