
     RDKit          3D

 17 18  0  0  0  0  0  0  0  0999 V2000
  -24.3730  -33.8013   37.3528 C   0  0  0  0  0  0  0  0  0  0  0  0
  -23.2311  -33.5944   39.3161 C   0  0  0  0  0  0  0  0  0  0  0  0
  -22.8870  -33.4521   40.7247 C   0  0  0  0  0  0  0  0  0  0  0  0
  -22.7180  -33.6112   35.2663 C   0  0  0  0  0  0  0  0  0  0  0  0
  -23.7727  -34.1625   41.7612 O   0  0  0  0  0  0  0  0  0  0  0  0
  -24.9546  -34.9396   42.8554 P   0  0  0  0  0  0  0  0  0  0  0  0
  -26.0807  -33.7732   39.6234 C   0  0  0  0  0  0  0  0  0  0  0  0
  -26.1423  -34.6965   42.5541 O   0  0  0  0  0  0  0  0  0  0  0  0
  -24.3351  -34.5753   43.9834 O   0  0  0  0  0  0  0  0  0  0  0  0
  -22.1986  -33.5197   38.5567 C   0  0  0  0  0  0  0  0  0  0  0  0
  -25.3956  -33.8291   36.6276 O   0  0  0  0  0  0  0  0  0  0  0  0
  -22.3843  -33.6797   37.3419 N   0  0  0  0  0  0  0  0  0  0  0  0
  -21.1643  -33.4726   38.7867 O   0  0  0  0  0  0  0  0  0  0  0  0
  -24.7469  -36.2786   42.4942 O   0  0  0  0  0  0  0  0  0  0  0  0
  -24.5720  -33.7995   38.9514 C   0  0  0  0  0  0  0  0  0  0  0  0
  -22.8558  -33.5509   36.7320 C   0  0  0  0  0  0  0  0  0  0  0  0
  -24.7121  -34.1111   40.5590 C   0  0  0  0  0  0  0  0  0  0  0  0
  3  2  1  0
  8  6  1  0
  9  6  1  0
 10  2  1  0
 11  1  1  0
 12 10  2  0
 13 10  1  0
 14  6  1  0
 15  1  1  0
 15  2  1  0
 15  7  1  0
 16  1  1  0
 16  4  1  0
 16 12  1  0
 17  5  1  0
 17  7  1  0
 17  8  1  0
 17 15  1  0
M  END
>  <ID>  (1) 
conformer_0

$$$$
