
     RDKit          3D

 15 15  0  0  0  0  0  0  0  0999 V2000
  -23.4891  -33.8759   39.4313 C   0  0  0  0  0  0  0  0  0  0  0  0
  -24.1315  -33.7506   37.0355 C   0  0  0  0  0  0  0  0  0  0  0  0
  -21.7422  -33.5007   37.8115 N   0  0  0  0  0  0  0  0  0  0  0  0
  -24.7646  -34.9527   43.0792 P   0  0  0  0  0  0  0  0  0  0  0  0
  -23.8940  -34.4498   41.8022 O   0  0  0  0  0  0  0  0  0  0  0  0
  -22.3177  -33.3752   35.2185 C   0  0  0  0  0  0  0  0  0  0  0  0
  -22.6513  -33.4762   36.9605 C   0  0  0  0  0  0  0  0  0  0  0  0
  -24.8228  -33.7620   36.1146 O   0  0  0  0  0  0  0  0  0  0  0  0
  -24.3592  -34.0888   40.4976 C   0  0  0  0  0  0  0  0  0  0  0  0
  -23.9695  -34.5387   44.0987 O   0  0  0  0  0  0  0  0  0  0  0  0
  -26.2129  -33.7193   38.9952 C   0  0  0  0  0  0  0  0  0  0  0  0
  -24.4404  -33.7949   38.6589 C   0  0  0  0  0  0  0  0  0  0  0  0
  -25.9839  -34.4413   42.4790 O   0  0  0  0  0  0  0  0  0  0  0  0
  -24.7540  -36.2933   43.2140 O   0  0  0  0  0  0  0  0  0  0  0  0
  -22.0307  -33.7089   38.9690 C   0  0  0  0  0  0  0  0  0  0  0  0
  7  2  2  0
  7  3  1  0
  7  6  1  0
  8  2  1  0
  9  1  1  0
  9  5  2  0
 10  4  1  0
 12  1  2  0
 12  2  1  0
 12 11  1  0
 13  4  1  0
 13  9  1  0
 14  4  1  0
 15  1  1  0
 15  3  2  0
M  END
>  <ID>  (1) 
conformer_0

$$$$
