
     RDKit          3D

 13 12  0  0  0  0  0  0  0  0999 V2000
  -23.3806  -33.6307   39.4075 C   0  0  0  0  0  0  0  0  0  0  0  0
  -23.9762  -33.7078   36.8491 C   0  0  2  0  0  0  0  0  0  0  0  0
  -22.4851  -33.5840   37.3679 N   0  0  0  0  0  0  0  0  0  0  0  0
  -24.7043  -34.9947   42.7771 P   0  0  1  0  0  4  0  0  0  0  0  0
  -23.9023  -33.6684   40.6420 C   0  0  0  0  0  0  0  0  0  0  0  0
  -22.9463  -33.5445   35.2295 C   0  0  0  0  0  0  0  0  0  0  0  0
  -23.9630  -34.0007   41.7437 O   0  0  0  0  0  0  0  0  0  0  0  0
  -24.1618  -35.2701   43.6544 O   0  0  0  0  0  0  0  0  0  0  0  0
  -25.8164  -33.8645   39.4924 C   0  0  0  0  0  0  0  0  0  0  0  0
  -25.1916  -33.7096   36.1811 O   0  0  0  0  0  0  0  0  0  0  0  0
  -22.5133  -33.5454   38.0865 C   0  0  0  0  0  0  0  0  0  0  0  0
  -25.7933  -34.8811   42.2886 O   0  0  0  0  0  1  0  0  0  0  0  0
  -24.5780  -33.8810   38.7232 C   0  0  0  0  0  0  0  0  0  0  0  0
  3  2  1  0
  5  1  1  0
  2  6  1  6
  7  4  1  0
  7  5  1  0
  4  8  1  1
 10  2  1  0
 11  1  1  0
 11  3  2  3
 12  4  1  0
 13  1  2  3
 13  9  1  0
M  RAD  2   4   2  12   2
M  END
>  <ID>  (1) 
conformer_0

$$$$
