
     RDKit          3D

 16 16  0  0  0  0  0  0  0  0999 V2000
  -23.3928  -33.6932   39.5352 C   0  0  0  0  0  0  0  0  0  0  0  0
  -24.2195  -33.8221   37.2202 C   0  0  0  0  0  0  0  0  0  0  0  0
  -21.8674  -33.5282   37.8867 N   0  0  0  0  0  0  0  0  0  0  0  0
  -24.5159  -34.9350   42.8512 P   0  0  0  0  0  0  0  0  0  0  0  0
  -22.5482  -33.4571   35.3101 C   0  0  0  0  0  0  0  0  0  0  0  0
  -23.4496  -33.6373   41.8033 O   0  0  0  0  0  0  0  0  0  0  0  0
  -22.0403  -33.5615   39.0231 C   0  0  0  0  0  0  0  0  0  0  0  0
  -23.9635  -33.9367   40.5818 C   0  0  0  0  0  0  0  0  0  0  0  0
  -25.3727  -33.6002   36.3233 O   0  0  0  0  0  0  0  0  0  0  0  0
  -23.8731  -34.6222   43.9141 O   0  0  0  0  0  0  0  0  0  0  0  0
  -26.0079  -34.5421   42.5076 O   0  0  0  0  0  0  0  0  0  0  0  0
  -26.3943  -33.8690   39.0749 C   0  0  0  0  0  0  0  0  0  0  0  0
  -24.9015  -36.3415   42.9707 O   0  0  0  0  0  0  0  0  0  0  0  0
  -24.4450  -33.8109   38.6796 C   0  0  0  0  0  0  0  0  0  0  0  0
  -22.7310  -33.4857   36.9314 C   0  0  0  0  0  0  0  0  0  0  0  0
  -24.0449  -35.3749   41.5220 O   0  0  0  0  0  0  0  0  0  0  0  0
  7  1  2  0
  7  3  1  0
  8  1  1  0
  8  6  1  0
  9  2  1  0
 10  4  1  0
 11  8  1  0
 13  4  1  0
 14  1  1  0
 14  2  2  0
 14 12  1  0
 15  2  1  0
 15  3  2  0
 15  5  1  0
 16  4  1  0
 16  8  1  0
M  END
>  <ID>  (1) 
conformer_0

$$$$
