
     RDKit          3D

 14 14  0  0  0  0  0  0  0  0999 V2000
  -24.5202  -33.8427   38.6283 C   0  0  0  0  0  0  0  0  0  0  0  0
  -24.2870  -33.7695   37.1135 C   0  0  0  0  0  0  0  0  0  0  0  0
  -22.7257  -33.3528   35.0984 C   0  0  0  0  0  0  0  0  0  0  0  0
  -24.8474  -34.9997   42.8389 P   0  0  0  0  0  4  0  0  0  0  0  0
  -22.1936  -33.5042   37.5495 N   0  0  0  0  0  0  0  0  0  0  0  0
  -23.8056  -34.4131   41.5995 O   0  0  0  0  0  0  0  0  0  0  0  0
  -25.9856  -33.8573   39.1326 C   0  0  0  0  0  0  0  0  0  0  0  0
  -23.5047  -33.8181   40.6811 C   0  0  0  0  0  0  0  0  0  0  0  0
  -26.0644  -34.4072   42.6358 O   0  0  0  0  0  1  0  0  0  0  0  0
  -24.2401  -35.3232   43.7040 O   0  0  0  0  0  0  0  0  0  0  0  0
  -22.2223  -33.5810   38.8137 C   0  0  0  0  0  0  0  0  0  0  0  0
  -25.3644  -33.6566   36.1844 O   0  0  0  0  0  0  0  0  0  0  0  0
  -23.3508  -33.7638   39.4043 C   0  0  0  0  0  0  0  0  0  0  0  0
  -22.6892  -33.3841   36.6522 C   0  0  0  0  0  0  0  0  0  0  0  0
  2  1  2  0
  6  4  1  0
  7  1  1  0
  8  6  1  0
  9  4  1  0
 10  4  1  0
 11  5  1  0
 12  2  1  0
 13  1  1  0
 13  8  1  0
 13 11  2  0
 14  2  1  0
 14  3  1  0
 14  5  2  0
M  RAD  2   4   2   9   2
M  END
>  <ID>  (1) 
conformer_0

$$$$
