
     RDKit          3D

 15 15  0  0  0  0  0  0  0  0999 V2000
  -24.4355  -33.7334   38.4744 C   0  0  0  0  0  0  0  0  0  0  0  0
  -24.3341  -33.5349   37.0230 C   0  0  0  0  0  0  0  0  0  0  0  0
  -25.5139  -33.4083   36.3489 O   0  0  0  0  0  0  0  0  0  0  0  0
  -24.8513  -35.0892   43.0060 P   0  0  0  0  0  0  0  0  0  0  0  0
  -22.0724  -33.7058   38.9787 C   0  0  0  0  0  0  0  0  0  0  0  0
  -23.8029  -34.6060   41.8759 O   0  0  0  0  0  0  0  0  0  0  0  0
  -24.0921  -34.2356   40.6749 C   0  0  0  0  0  0  0  0  0  0  0  0
  -21.8539  -33.4590   37.6838 N   0  0  0  0  0  0  0  0  0  0  0  0
  -22.8101  -33.3971   35.1799 C   0  0  0  0  0  0  0  0  0  0  0  0
  -25.9944  -34.4012   42.6204 O   0  0  0  0  0  0  0  0  0  0  0  0
  -24.8948  -36.3581   43.0474 O   0  0  0  0  0  0  0  0  0  0  0  0
  -25.8930  -33.7231   39.4365 C   0  0  0  0  0  0  0  0  0  0  0  0
  -23.5062  -33.8286   39.4011 C   0  0  0  0  0  0  0  0  0  0  0  0
  -22.7810  -33.3556   36.9168 C   0  0  0  0  0  0  0  0  0  0  0  0
  -24.1118  -34.9959   44.2565 O   0  0  0  0  0  0  0  0  0  0  0  0
  2  1  2  0
  3  2  1  0
  7  6  2  0
  8  5  1  0
 10  4  1  0
 10  7  1  0
 11  4  1  0
 12  1  1  0
 13  1  1  0
 13  5  2  0
 13  7  1  0
 14  2  1  0
 14  8  2  0
 14  9  1  0
 15  4  1  0
M  END
>  <ID>  (1) 
conformer_0

$$$$
