
     RDKit          3D

 14 14  0  0  0  0  0  0  0  0999 V2000
  -23.3716  -33.6713   39.4829 C   0  0  0  0  0  0  0  0  0  0  0  0
  -22.7029  -33.6324   37.0119 C   0  0  0  0  0  0  0  0  0  0  0  0
  -21.9769  -33.7044   37.6851 N   0  0  0  0  0  0  0  0  0  0  0  0
  -23.7948  -34.2061   41.4799 O   0  0  0  0  0  0  0  0  0  0  0  0
  -25.0904  -33.7973   36.3376 O   0  0  0  0  0  0  0  0  0  0  0  0
  -24.9155  -34.9529   42.7151 P   0  0  0  0  0  4  0  0  0  0  0  0
  -25.9141  -33.6436   39.3469 C   0  0  0  0  0  0  0  0  0  0  0  0
  -22.0569  -33.6503   39.0349 C   0  0  0  0  0  0  0  0  0  0  0  0
  -22.7000  -33.6795   35.3893 C   0  0  0  0  0  0  0  0  0  0  0  0
  -26.0706  -34.7273   42.2434 O   0  0  0  0  0  1  0  0  0  0  0  0
  -24.3223  -35.3009   43.5359 O   0  0  0  0  0  0  0  0  0  0  0  0
  -23.9886  -33.6638   40.5659 C   0  0  0  0  0  0  0  0  0  0  0  0
  -24.4876  -33.7767   38.6799 C   0  0  0  0  0  0  0  0  0  0  0  0
  -24.2147  -33.8872   37.1696 C   0  0  0  0  0  0  0  0  0  0  0  0
  3  2  2  0
  6  4  1  0
  8  1  2  0
  8  3  1  0
  9  2  1  0
 10  6  1  0
 11  6  1  0
 12  1  1  0
 12  4  1  0
 13  1  1  0
 13  7  1  0
 14  2  1  0
 14  5  1  0
 14 13  2  0
M  RAD  2   6   2  10   2
M  END
>  <ID>  (1) 
conformer_0

$$$$
