
     RDKit          3D

 15 15  0  0  0  0  0  0  0  0999 V2000
  -23.3114  -33.8471   39.5010 C   0  0  0  0  0  0  0  0  0  0  0  0
  -22.8381  -33.6276   36.8608 C   0  0  0  0  0  0  0  0  0  0  0  0
  -23.8384  -34.2888   41.6824 O   0  0  0  0  0  0  0  0  0  0  0  0
  -24.7416  -34.7502   43.0357 P   0  0  0  0  0  0  0  0  0  0  0  0
  -22.2879  -33.5699   37.5050 N   0  0  0  0  0  0  0  0  0  0  0  0
  -23.6189  -34.0649   40.5843 C   0  0  0  0  0  0  0  0  0  0  0  0
  -22.5731  -33.7617   35.3295 C   0  0  0  0  0  0  0  0  0  0  0  0
  -26.0632  -34.5291   42.6384 O   0  0  0  0  0  0  0  0  0  0  0  0
  -22.0988  -33.5895   38.8030 C   0  0  0  0  0  0  0  0  0  0  0  0
  -24.2016  -33.9725   44.0205 O   0  0  0  0  0  0  0  0  0  0  0  0
  -26.0221  -33.6415   38.9600 C   0  0  0  0  0  0  0  0  0  0  0  0
  -24.9739  -33.5301   36.3932 O   0  0  0  0  0  0  0  0  0  0  0  0
  -24.5262  -33.8536   38.7623 C   0  0  0  0  0  0  0  0  0  0  0  0
  -24.3776  -36.0483   43.4238 O   0  0  0  0  0  0  0  0  0  0  0  0
  -24.5005  -33.7416   37.2773 C   0  0  0  0  0  0  0  0  0  0  0  0
  5  2  2  0
  6  1  1  0
  6  3  2  0
  7  2  1  0
  8  4  1  0
  8  6  1  0
  9  1  2  0
  9  5  1  0
 10  4  1  0
 13  1  1  0
 13 11  1  0
 14  4  1  0
 15  2  1  0
 15 12  1  0
 15 13  2  0
M  END
>  <ID>  (1) 
conformer_0

$$$$
