
     RDKit          3D

 15 15  0  0  0  0  0  0  0  0999 V2000
  -23.2990  -33.5839   39.6773 C   0  0  0  0  0  0  0  0  0  0  0  0
  -24.2843  -33.8049   37.4492 C   0  0  0  0  0  0  0  0  0  0  0  0
  -23.7488  -34.5936   41.9475 O   0  0  0  0  0  0  0  0  0  0  0  0
  -24.8550  -35.1242   43.0220 P   0  0  0  0  0  0  0  0  0  0  0  0
  -26.0604  -34.4478   42.6987 O   0  0  0  0  0  0  0  0  0  0  0  0
  -22.3014  -33.5423   37.6807 N   0  0  0  0  0  0  0  0  0  0  0  0
  -22.7007  -33.6577   35.5195 C   0  0  0  0  0  0  0  0  0  0  0  0
  -22.0539  -33.4893   38.9854 C   0  0  0  0  0  0  0  0  0  0  0  0
  -23.7199  -33.7456   40.8838 C   0  0  0  0  0  0  0  0  0  0  0  0
  -25.8527  -33.8924   39.3783 C   0  0  0  0  0  0  0  0  0  0  0  0
  -24.2182  -34.7725   44.2413 O   0  0  0  0  0  0  0  0  0  0  0  0
  -25.3382  -33.6650   36.3520 O   0  0  0  0  0  0  0  0  0  0  0  0
  -25.1399  -36.3851   42.6873 O   0  0  0  0  0  0  0  0  0  0  0  0
  -24.4767  -33.8610   38.9645 C   0  0  0  0  0  0  0  0  0  0  0  0
  -22.7348  -33.4987   36.9917 C   0  0  0  0  0  0  0  0  0  0  0  0
  5  4  1  0
  8  1  2  0
  8  6  1  0
  9  1  1  0
  9  3  1  0
  9  5  1  0
 11  4  1  0
 12  2  1  0
 13  4  1  0
 14  1  1  0
 14  2  2  0
 14 10  1  0
 15  2  1  0
 15  6  1  0
 15  7  1  0
M  END
>  <ID>  (1) 
conformer_0

$$$$
