
     RDKit          3D

 15 16  0  0  0  0  0  0  0  0999 V2000
  -24.2689  -33.7971   37.3129 C   0  0  0  0  0  3  0  0  0  0  0  0
  -23.2876  -33.7869   39.5618 C   0  0  0  0  0  0  0  0  0  0  0  0
  -22.7188  -33.6681   35.4197 C   0  0  0  0  0  0  0  0  0  0  0  0
  -24.7770  -34.8457   42.6049 P   0  0  0  0  0  0  0  0  0  0  0  0
  -22.0439  -33.6651   38.9800 C   0  0  0  0  0  0  0  0  0  0  0  0
  -22.1244  -33.5134   37.6137 N   0  0  0  0  0  0  0  0  0  0  0  0
  -25.9984  -34.3896   42.3139 O   0  0  0  0  0  0  0  0  0  0  0  0
  -25.2048  -33.7049   36.6806 O   0  0  0  0  0  0  0  0  0  0  0  0
  -24.3351  -33.9522   40.5810 C   0  0  0  0  0  0  0  0  0  0  0  0
  -23.9563  -34.6120   43.7662 O   0  0  0  0  0  0  0  0  0  0  0  0
  -23.8217  -34.2893   41.7060 O   0  0  0  0  0  0  0  0  0  0  0  0
  -25.8020  -33.7082   39.4172 C   0  0  0  0  0  0  0  0  0  0  0  0
  -24.5240  -33.7971   38.7542 C   0  0  0  0  0  0  0  0  0  0  0  0
  -22.7296  -33.5732   36.9986 C   0  0  0  0  0  0  0  0  0  0  0  0
  -24.6842  -36.2393   42.8041 O   0  0  0  0  0  0  0  0  0  0  0  0
  5  2  2  0
  6  5  1  0
  7  4  1  0
  8  1  1  0
  9  2  1  0
  9  7  1  0
 10  4  1  0
 11  9  1  0
 13  1  1  0
 13  2  1  0
 13  9  1  0
 13 12  1  0
 14  1  1  0
 14  3  1  0
 14  6  2  0
 15  4  1  0
M  RAD  1   1   2
M  END
>  <ID>  (1) 
conformer_0

$$$$
