
     RDKit          3D

 15 16  0  0  0  0  0  0  0  0999 V2000
  -24.2432  -33.7051   37.2218 C   0  0  0  0  0  0  0  0  0  0  0  0
  -24.1961  -33.8662   38.4835 C   0  0  0  0  0  0  0  0  0  0  0  0
  -25.3856  -33.9605   39.8753 C   0  0  0  0  0  0  0  0  0  0  0  0
  -21.8431  -33.5001   37.5608 N   0  0  0  0  0  0  0  0  0  0  0  0
  -22.7442  -33.3713   35.0672 C   0  0  0  0  0  0  0  0  0  0  0  0
  -25.4872  -33.4660   36.4096 O   0  0  0  0  0  0  0  0  0  0  0  0
  -24.9521  -35.0495   42.9594 P   0  0  0  0  0  0  0  0  0  0  0  0
  -22.0495  -33.7397   38.7356 C   0  0  0  0  0  0  0  0  0  0  0  0
  -23.9298  -33.8806   40.7979 C   0  0  0  0  0  0  0  0  0  0  0  0
  -23.7881  -34.2932   42.0199 O   0  0  0  0  0  0  0  0  0  0  0  0
  -25.0102  -36.2420   42.5129 O   0  0  0  0  0  0  0  0  0  0  0  0
  -26.1523  -34.2572   42.7012 O   0  0  0  0  0  0  0  0  0  0  0  0
  -23.9424  -35.4238   44.2076 O   0  0  0  0  0  0  0  0  0  0  0  0
  -22.7665  -33.4257   36.6864 C   0  0  0  0  0  0  0  0  0  0  0  0
  -23.1043  -33.7910   39.5418 C   0  0  0  0  0  0  0  0  0  0  0  0
  2  1  2  0
  3  2  1  0
  6  1  1  0
  8  4  1  0
  9  3  1  0
 10  9  1  0
 11  7  1  0
 12  3  1  0
 12  7  1  0
 13  7  1  0
 14  1  1  0
 14  4  2  0
 14  5  1  0
 15  2  1  0
 15  8  2  0
 15  9  1  0
M  END
>  <ID>  (1) 
conformer_0

$$$$
