
     RDKit          3D

 15 15  0  0  0  0  0  0  0  0999 V2000
  -24.1551  -33.7307   37.2915 C   0  0  0  0  0  0  0  0  0  0  0  0
  -23.2318  -33.7393   39.6543 C   0  0  0  0  0  0  0  0  0  0  0  0
  -24.0655  -33.8008   41.0650 C   0  0  0  0  0  0  0  0  0  0  0  0
  -26.1477  -34.3529   42.6427 O   0  0  0  0  0  0  0  0  0  0  0  0
  -21.8224  -33.5924   37.7211 N   0  0  0  0  0  0  0  0  0  0  0  0
  -24.9548  -35.2325   43.1912 P   0  0  0  0  0  0  0  0  0  0  0  0
  -21.9707  -33.7081   38.9089 C   0  0  0  0  0  0  0  0  0  0  0  0
  -22.5616  -33.2951   35.1486 C   0  0  0  0  0  0  0  0  0  0  0  0
  -24.3801  -34.9431   44.4232 O   0  0  0  0  0  0  0  0  0  0  0  0
  -24.8540  -33.5449   36.2454 O   0  0  0  0  0  0  0  0  0  0  0  0
  -26.1150  -33.5579   39.1871 C   0  0  0  0  0  0  0  0  0  0  0  0
  -23.8763  -34.6877   42.2755 O   0  0  0  0  0  0  0  0  0  0  0  0
  -25.0686  -36.5254   42.6557 O   0  0  0  0  0  0  0  0  0  0  0  0
  -24.4194  -33.7912   38.9104 C   0  0  0  0  0  0  0  0  0  0  0  0
  -22.7572  -33.4684   36.9043 C   0  0  0  0  0  0  0  0  0  0  0  0
  3  2  1  0
  4  3  2  0
  7  2  2  0
  7  5  1  0
  9  6  1  0
 10  1  1  0
 12  3  1  0
 12  6  1  0
 13  6  1  0
 14  1  2  0
 14  2  1  0
 14 11  1  0
 15  1  1  0
 15  5  2  0
 15  8  1  0
M  END
>  <ID>  (1) 
conformer_0

$$$$
