
     RDKit          3D

 16 18  0  0  0  0  0  0  0  0999 V2000
  -24.4516  -33.7713   37.1152 C   0  0  0  0  0  0  0  0  0  0  0  0
  -23.3872  -33.8948   39.3140 C   0  0  0  0  0  0  0  0  0  0  0  0
  -22.7995  -33.4351   35.1681 C   0  0  0  0  0  0  0  0  0  0  0  0
  -26.3771  -34.2898   42.3759 O   0  0  0  0  0  0  0  0  0  0  0  0
  -24.9379  -34.6298   42.7378 P   0  0  0  0  0  0  0  0  0  0  0  0
  -23.8922  -33.9528   40.5998 C   0  0  0  0  0  0  0  0  0  0  0  0
  -22.1903  -33.7916   37.4600 N   0  0  0  0  0  0  0  0  0  0  0  0
  -22.3025  -33.7700   38.6259 C   0  0  0  0  0  0  0  0  0  0  0  0
  -24.3994  -34.0880   43.8400 O   0  0  0  0  0  0  0  0  0  0  0  0
  -25.2525  -33.4948   36.2515 O   0  0  0  0  0  0  0  0  0  0  0  0
  -21.5273  -33.9114   39.4212 O   0  0  0  0  0  0  0  0  0  0  0  0
  -25.2453  -33.7413   39.7967 C   0  0  0  0  0  0  0  0  0  0  0  0
  -24.5483  -36.0457   42.7235 O   0  0  0  0  0  0  0  0  0  0  0  0
  -24.2337  -34.2743   41.8629 O   0  0  0  0  0  0  0  0  0  0  0  0
  -22.9117  -33.6106   36.6167 C   0  0  0  0  0  0  0  0  0  0  0  0
  -24.5975  -33.8904   38.5319 C   0  0  0  0  0  0  0  0  0  0  0  0
  6  2  1  0
  8  2  1  0
  8  7  2  0
  9  5  1  0
 10  1  1  0
 11  8  1  0
 12  2  1  0
 12  4  1  0
 12  6  1  0
 13  5  1  0
 14  5  1  0
 14  6  1  0
 15  1  2  0
 15  3  1  0
 15  7  1  0
 16  1  1  0
 16  2  1  0
 16 12  1  0
M  END
>  <ID>  (1) 
conformer_0

$$$$
