
     RDKit          3D

 14 14  0  0  0  0  0  0  0  0999 V2000
  -23.1441  -33.9148   39.6257 C   0  0  0  0  0  0  0  0  0  0  0  0
  -24.2382  -33.7068   37.1077 C   0  0  0  0  0  0  0  0  0  0  0  0
  -25.7971  -33.6965   39.3704 C   0  0  0  0  0  0  0  0  0  0  0  0
  -21.9867  -33.5124   37.5975 N   0  0  0  0  0  0  0  0  0  0  0  0
  -22.5089  -33.5624   35.0764 C   0  0  0  0  0  0  0  0  0  0  0  0
  -24.7560  -35.0065   43.1894 P   0  0  0  0  0  4  0  0  0  0  0  0
  -23.9739  -34.6112   41.9158 O   0  0  0  0  0  0  0  0  0  0  0  0
  -23.6722  -34.1107   40.7667 C   0  0  0  0  0  0  0  0  0  0  0  0
  -22.7687  -33.5356   36.7881 C   0  0  0  0  0  0  0  0  0  0  0  0
  -25.1269  -33.4625   36.2532 O   0  0  0  0  0  0  0  0  0  0  0  0
  -24.0830  -35.1885   44.0524 O   0  0  0  0  0  0  0  0  0  0  0  0
  -25.9390  -34.4552   42.7857 O   0  0  0  0  0  1  0  0  0  0  0  0
  -24.3536  -33.8451   38.7134 C   0  0  0  0  0  0  0  0  0  0  0  0
  -21.9543  -33.7109   38.8508 C   0  0  0  0  0  0  0  0  0  0  0  0
  7  6  1  0
  8  1  1  0
  8  7  1  0
  9  2  2  0
  9  4  1  0
  9  5  1  0
 10  2  1  0
 11  6  1  0
 12  6  1  0
 13  1  2  0
 13  2  1  0
 13  3  1  0
 14  1  1  0
 14  4  2  0
M  RAD  2   6   2  12   2
M  END
>  <ID>  (1) 
conformer_0

$$$$
