
     RDKit          3D

 15 15  0  0  0  0  0  0  0  0999 V2000
  -24.4516  -33.8226   37.2463 C   0  0  0  0  0  0  0  0  0  0  0  0
  -23.1635  -33.7566   39.4027 C   0  0  0  0  0  0  0  0  0  0  0  0
  -24.6465  -34.9595   42.8643 P   0  0  0  0  0  0  0  0  0  0  0  0
  -23.6209  -34.3529   41.8375 O   0  0  0  0  0  0  0  0  0  0  0  0
  -22.7596  -33.1619   35.3350 C   0  0  0  0  0  0  0  0  0  0  0  0
  -22.1831  -33.3837   37.4588 N   0  0  0  0  0  0  0  0  0  0  0  0
  -23.4079  -34.0583   40.6706 C   0  0  0  0  0  0  0  0  0  0  0  0
  -25.9586  -34.4311   42.8275 O   0  0  0  0  0  0  0  0  0  0  0  0
  -25.7070  -34.4525   39.4494 C   0  0  0  0  0  0  0  0  0  0  0  0
  -25.4579  -33.6590   36.0856 O   0  0  0  0  0  0  0  0  0  0  0  0
  -23.1822  -33.4071   36.6799 C   0  0  0  0  0  0  0  0  0  0  0  0
  -23.8038  -34.8537   44.0641 O   0  0  0  0  0  0  0  0  0  0  0  0
  -24.5136  -33.9408   38.7865 C   0  0  0  0  0  0  0  0  0  0  0  0
  -24.8054  -36.2031   42.7176 O   0  0  0  0  0  0  0  0  0  0  0  0
  -22.2175  -33.5246   38.5383 C   0  0  0  0  0  0  0  0  0  0  0  0
  7  2  1  0
  7  4  2  0
  8  3  1  0
  8  7  1  0
 10  1  1  0
 11  1  2  0
 11  5  1  0
 11  6  1  0
 12  3  1  0
 13  1  1  0
 13  2  2  0
 13  9  1  0
 14  3  1  0
 15  2  1  0
 15  6  2  0
M  END
>  <ID>  (1) 
conformer_0

$$$$
