
     RDKit          3D

 15 16  0  0  0  0  0  0  0  0999 V2000
  -24.4551  -33.7371   38.4695 C   0  0  0  0  0  0  0  0  0  0  0  0
  -24.1561  -33.8863   37.1045 C   0  0  0  0  0  0  0  0  0  0  0  0
  -22.6275  -33.6644   35.2478 C   0  0  0  0  0  0  0  0  0  0  0  0
  -21.9572  -33.5046   37.6919 N   0  0  0  0  0  0  0  0  0  0  0  0
  -24.8887  -34.7114   42.8846 P   0  0  0  0  0  0  0  0  0  0  0  0
  -23.9791  -34.3441   41.5652 O   0  0  0  0  0  0  0  0  0  0  0  0
  -22.1331  -33.6741   39.0946 C   0  0  0  0  0  0  0  0  0  0  0  0
  -26.2214  -34.6035   42.7572 O   0  0  0  0  0  0  0  0  0  0  0  0
  -24.8683  -34.0840   36.2767 O   0  0  0  0  0  0  0  0  0  0  0  0
  -24.1952  -34.2683   43.8540 O   0  0  0  0  0  0  0  0  0  0  0  0
  -24.5370  -33.9888   40.4493 C   0  0  0  0  0  0  0  0  0  0  0  0
  -24.8315  -36.2209   42.4711 O   0  0  0  0  0  0  0  0  0  0  0  0
  -25.7825  -33.4783   39.4106 C   0  0  0  0  0  0  0  0  0  0  0  0
  -23.5182  -33.7269   39.4429 C   0  0  0  0  0  0  0  0  0  0  0  0
  -22.6091  -33.5459   36.9856 C   0  0  0  0  0  0  0  0  0  0  0  0
  2  1  2  0
  7  4  1  0
  8  5  1  0
  9  2  1  0
 10  5  1  0
 11  6  1  0
 11  8  1  0
 12  5  1  0
 13  1  1  0
 13 11  1  0
 14  1  1  0
 14  7  2  0
 14 11  1  0
 15  2  1  0
 15  3  1  0
 15  4  2  0
M  END
>  <ID>  (1) 
conformer_0

$$$$
