
     RDKit          3D

 12 11  0  0  0  0  0  0  0  0999 V2000
  -23.9189  -33.6632   36.8410 C   0  0  2  0  0  0  0  0  0  0  0  0
  -23.8926  -33.7936   38.9855 C   0  0  1  0  0  0  0  0  0  0  0  0
  -22.7346  -33.4467   35.1425 C   0  0  0  0  0  0  0  0  0  0  0  0
  -23.9794  -33.7584   40.7230 C   0  0  0  0  0  0  0  0  0  0  0  0
  -24.8802  -34.9244   42.9420 P   0  0  1  0  0  4  0  0  0  0  0  0
  -25.6860  -33.7969   39.6496 C   0  0  0  0  0  0  0  0  0  0  0  0
  -23.8617  -34.6639   41.8422 O   0  0  0  0  0  0  0  0  0  0  0  0
  -22.1850  -33.5706   37.3896 N   0  0  0  0  0  0  0  0  0  0  0  0
  -24.4805  -35.0573   43.7511 O   0  0  0  0  0  0  0  0  0  0  0  0
  -25.2415  -33.6658   36.2503 O   0  0  0  0  0  0  0  0  0  0  0  0
  -22.5522  -33.6372   37.8823 C   0  0  0  0  0  0  0  0  0  0  0  0
  -25.9911  -34.3995   42.3934 O   0  0  0  0  0  1  0  0  0  0  0  0
  1  3  1  6
  4  2  1  0
  2  6  1  6
  7  4  1  0
  7  5  1  0
  5  9  1  1
 10  1  1  0
 11  1  1  0
 11  2  1  0
 11  8  2  3
 12  5  1  0
M  RAD  2   5   2  12   2
M  END
>  <ID>  (1) 
conformer_0

$$$$
