
     RDKit          3D

 15 16  0  0  0  0  0  0  0  0999 V2000
  -23.4133  -33.6405   39.3618 C   0  0  0  0  0  0  0  0  0  0  0  0
  -24.3779  -33.7170   37.0503 C   0  0  0  0  0  0  0  0  0  0  0  0
  -22.7969  -33.1535   35.1220 C   0  0  0  0  0  0  0  0  0  0  0  0
  -23.8173  -34.7003   41.8493 O   0  0  0  0  0  0  0  0  0  0  0  0
  -24.8648  -34.9460   42.9383 P   0  0  0  0  0  0  0  0  0  0  0  0
  -22.3110  -33.4581   37.2919 N   0  0  0  0  0  0  0  0  0  0  0  0
  -22.2672  -33.4873   38.6133 C   0  0  0  0  0  0  0  0  0  0  0  0
  -24.0056  -33.9202   40.6035 C   0  0  0  0  0  0  0  0  0  0  0  0
  -26.1224  -34.3408   42.5142 O   0  0  0  0  0  0  0  0  0  0  0  0
  -24.1161  -34.5588   44.0508 O   0  0  0  0  0  0  0  0  0  0  0  0
  -25.3218  -33.8158   36.4080 O   0  0  0  0  0  0  0  0  0  0  0  0
  -25.3752  -36.2078   42.9947 O   0  0  0  0  0  0  0  0  0  0  0  0
  -25.5730  -33.8658   39.6322 C   0  0  0  0  0  0  0  0  0  0  0  0
  -24.4892  -33.7662   38.5311 C   0  0  0  0  0  0  0  0  0  0  0  0
  -22.8190  -33.2986   36.4486 C   0  0  0  0  0  0  0  0  0  0  0  0
  7  1  2  0
  7  6  1  0
  8  1  1  0
  8  4  1  0
  9  5  1  0
  9  8  1  0
 10  5  1  0
 11  2  1  0
 12  5  1  0
 13  8  1  0
 14  1  1  0
 14  2  2  0
 14 13  1  0
 15  2  1  0
 15  3  1  0
 15  6  2  0
M  END
>  <ID>  (1) 
conformer_0

$$$$
