
     RDKit          3D

 15 15  0  0  0  0  0  0  0  0999 V2000
  -24.4173  -33.6386   37.1075 C   0  0  0  0  0  0  0  0  0  0  0  0
  -24.5023  -33.7565   38.5368 C   0  0  0  0  0  0  0  0  0  0  0  0
  -22.0469  -33.4789   37.4921 N   0  0  0  0  0  0  0  0  0  0  0  0
  -23.7334  -33.7917   40.9315 C   0  0  0  0  0  0  0  0  0  0  0  0
  -22.5028  -33.1712   35.2494 C   0  0  0  0  0  0  0  0  0  0  0  0
  -24.8026  -35.2857   42.9429 P   0  0  0  0  0  0  0  0  0  0  0  0
  -25.3868  -33.3203   36.3255 O   0  0  0  0  0  0  0  0  0  0  0  0
  -26.1105  -34.8625   42.8913 O   0  0  0  0  0  0  0  0  0  0  0  0
  -22.9237  -33.3299   36.6225 C   0  0  0  0  0  0  0  0  0  0  0  0
  -24.0325  -35.4689   44.0790 O   0  0  0  0  0  0  0  0  0  0  0  0
  -25.4368  -33.7778   39.4990 C   0  0  0  0  0  0  0  0  0  0  0  0
  -24.6491  -36.3136   42.0217 O   0  0  0  0  0  0  0  0  0  0  0  0
  -24.1562  -34.2265   42.2012 O   0  0  0  0  0  0  0  0  0  0  0  0
  -23.2267  -33.7070   39.3137 C   0  0  0  0  0  0  0  0  0  0  0  0
  -22.1234  -33.5452   38.5734 C   0  0  0  0  0  0  0  0  0  0  0  0
  2  1  2  0
  7  1  1  0
  8  4  1  0
  8  6  1  0
  9  1  1  0
  9  3  2  0
  9  5  1  0
 10  6  1  0
 11  2  1  0
 12  6  1  0
 13  4  1  0
 14  2  1  0
 14  4  1  0
 15  3  1  0
 15 14  2  0
M  END
>  <ID>  (1) 
conformer_0

$$$$
