
     RDKit          3D

 14 15  0  0  0  0  0  0  0  0999 V2000
  -24.4039  -33.9072   38.6930 C   0  0  0  0  0  0  0  0  0  0  0  0
  -24.2255  -33.8117   37.2159 C   0  0  0  0  0  3  0  0  0  0  0  0
  -22.6290  -33.1588   35.1825 C   0  0  0  0  0  0  0  0  0  0  0  0
  -24.6612  -34.8820   42.8381 P   0  0  0  0  0  4  0  0  0  0  0  0
  -21.9273  -33.5889   37.4290 N   0  0  0  0  0  0  0  0  0  0  0  0
  -23.6893  -34.3347   41.7449 O   0  0  0  0  0  0  0  0  0  0  0  0
  -25.5017  -33.5230   36.4879 O   0  0  0  0  0  0  0  0  0  0  0  0
  -25.8394  -33.9737   39.5321 C   0  0  0  0  0  0  0  0  0  0  0  0
  -25.9031  -35.1224   42.3559 O   0  0  0  0  0  1  0  0  0  0  0  0
  -24.0952  -33.7819   40.5246 C   0  0  0  0  0  0  0  0  0  0  0  0
  -22.0371  -33.6217   38.5480 C   0  0  0  0  0  0  0  0  0  0  0  0
  -24.3599  -35.0071   43.7514 O   0  0  0  0  0  0  0  0  0  0  0  0
  -23.2092  -33.6806   39.2722 C   0  0  0  0  0  0  0  0  0  0  0  0
  -22.7766  -33.4627   36.5936 C   0  0  0  0  0  0  0  0  0  0  0  0
  2  1  1  0
  6  4  1  0
  7  2  1  0
  8  1  1  0
  9  4  1  0
 10  1  1  0
 10  6  1  0
 11  5  1  0
 12  4  1  0
 13  1  1  0
 13 10  1  0
 13 11  2  0
 14  2  1  0
 14  3  1  0
 14  5  2  0
M  RAD  3   2   2   4   2   9   2
M  END
>  <ID>  (1) 
conformer_0

$$$$
