
     RDKit          3D

 15 15  0  0  0  0  0  0  0  0999 V2000
  -24.1701  -33.6349   37.1798 C   0  0  0  0  0  0  0  0  0  0  0  0
  -23.4289  -33.6450   39.7244 C   0  0  0  0  0  0  0  0  0  0  0  0
  -25.7788  -33.8986   39.2496 C   0  0  0  0  0  0  0  0  0  0  0  0
  -24.7137  -34.9692   42.8022 P   0  0  0  0  0  0  0  0  0  0  0  0
  -25.2265  -33.3927   36.2492 O   0  0  0  0  0  0  0  0  0  0  0  0
  -21.8257  -33.6426   38.0605 N   0  0  0  0  0  0  0  0  0  0  0  0
  -23.8394  -34.7138   43.8898 O   0  0  0  0  0  0  0  0  0  0  0  0
  -22.7260  -33.4695   37.1685 C   0  0  0  0  0  0  0  0  0  0  0  0
  -23.9030  -34.5186   41.7008 O   0  0  0  0  0  0  0  0  0  0  0  0
  -23.9002  -33.5745   40.9945 C   0  0  0  0  0  0  0  0  0  0  0  0
  -22.6978  -33.3811   35.5552 C   0  0  0  0  0  0  0  0  0  0  0  0
  -25.9102  -34.2523   42.6713 O   0  0  0  0  0  0  0  0  0  0  0  0
  -25.2648  -36.3076   42.6949 O   0  0  0  0  0  0  0  0  0  0  0  0
  -24.4375  -33.8059   38.6667 C   0  0  0  0  0  0  0  0  0  0  0  0
  -22.0161  -33.7016   39.1304 C   0  0  0  0  0  0  0  0  0  0  0  0
  5  1  1  0
  7  4  1  0
  8  1  2  0
  8  6  1  0
 10  2  1  0
 10  9  1  0
 11  8  1  0
 12  4  1  0
 12 10  1  0
 13  4  1  0
 14  1  1  0
 14  2  2  0
 14  3  1  0
 15  2  1  0
 15  6  2  0
M  END
>  <ID>  (1) 
conformer_0

$$$$
