
     RDKit          3D

 15 15  0  0  0  0  0  0  0  0999 V2000
  -23.2382  -33.6409   39.6022 C   0  0  0  0  0  0  0  0  0  0  0  0
  -24.2217  -33.7542   37.2532 C   0  0  0  0  0  0  0  0  0  0  0  0
  -25.2322  -33.6636   36.3537 O   0  0  0  0  0  0  0  0  0  0  0  0
  -21.8920  -33.4534   37.6950 N   0  0  0  0  0  0  0  0  0  0  0  0
  -26.0383  -33.6613   39.2521 C   0  0  0  0  0  0  0  0  0  0  0  0
  -24.6334  -35.0552   42.9793 P   0  0  0  0  0  0  0  0  0  0  0  0
  -22.8352  -33.4561   37.0215 C   0  0  0  0  0  0  0  0  0  0  0  0
  -23.7543  -34.6512   41.7208 O   0  0  0  0  0  0  0  0  0  0  0  0
  -22.6689  -33.4254   35.4518 C   0  0  0  0  0  0  0  0  0  0  0  0
  -23.9288  -34.6437   43.9945 O   0  0  0  0  0  0  0  0  0  0  0  0
  -23.8000  -33.9019   40.8265 C   0  0  0  0  0  0  0  0  0  0  0  0
  -24.3949  -33.7341   38.8924 C   0  0  0  0  0  0  0  0  0  0  0  0
  -25.8427  -34.4915   42.3634 O   0  0  0  0  0  0  0  0  0  0  0  0
  -25.0637  -36.3102   42.9831 O   0  0  0  0  0  0  0  0  0  0  0  0
  -21.9248  -33.5879   38.9179 C   0  0  0  0  0  0  0  0  0  0  0  0
  3  2  1  0
  7  2  2  0
  7  4  1  0
  9  7  1  0
 10  6  1  0
 11  1  1  0
 11  8  2  0
 12  1  2  0
 12  2  1  0
 12  5  1  0
 13  6  1  0
 13 11  1  0
 14  6  1  0
 15  1  1  0
 15  4  2  0
M  END
>  <ID>  (1) 
conformer_0

$$$$
