
     RDKit          3D

 14 14  0  0  0  0  0  0  0  0999 V2000
  -23.3773  -33.6843   39.6700 C   0  0  0  0  0  0  0  0  0  0  0  0
  -22.6948  -33.5813   36.9977 C   0  0  0  0  0  0  0  0  0  0  0  0
  -21.8446  -33.6359   37.7727 N   0  0  0  0  0  0  0  0  0  0  0  0
  -26.1117  -34.0020   42.6207 O   0  0  0  0  0  0  0  0  0  0  0  0
  -22.0597  -33.6122   39.0347 C   0  0  0  0  0  0  0  0  0  0  0  0
  -24.9274  -34.7864   42.8946 P   0  0  0  0  0  0  0  0  0  0  0  0
  -24.0727  -34.1157   40.7327 C   0  0  0  0  0  0  0  0  0  0  0  0
  -22.9211  -33.6140   35.2966 C   0  0  0  0  0  0  0  0  0  0  0  0
  -23.9626  -34.7142   44.0698 O   0  0  0  0  0  0  0  0  0  0  0  0
  -25.2070  -33.8726   36.3590 O   0  0  0  0  0  0  0  0  0  0  0  0
  -23.9961  -34.5307   41.8737 O   0  0  0  0  0  0  0  0  0  0  0  0
  -24.2719  -33.8185   38.7140 C   0  0  0  0  0  0  0  0  0  0  0  0
  -24.1561  -33.8829   37.2081 C   0  0  0  0  0  0  0  0  0  0  0  0
  -25.0647  -36.0489   43.0644 O   0  0  0  0  0  0  0  0  0  0  0  0
  3  2  2  0
  5  1  2  0
  5  3  1  0
  7  1  1  0
  7  4  2  0
  8  2  1  0
  9  6  1  0
 11  6  1  0
 11  7  1  0
 12  1  1  0
 13  2  1  0
 13 10  1  0
 13 12  2  0
 14  6  1  0
M  END
>  <ID>  (1) 
conformer_0

$$$$
