
     RDKit          3D

 14 14  0  0  0  0  0  0  0  0999 V2000
  -24.2367  -33.6897   38.6878 C   0  0  0  0  0  0  0  0  0  0  0  0
  -24.2982  -33.6713   37.1393 C   0  0  0  0  0  0  0  0  0  0  0  0
  -21.7262  -33.7029   37.7302 N   0  0  0  0  0  0  0  0  0  0  0  0
  -25.4475  -33.4385   36.3210 O   0  0  0  0  0  0  0  0  0  0  0  0
  -24.7785  -34.8442   43.0591 P   0  0  0  0  0  4  0  0  0  0  0  0
  -22.6898  -33.6973   35.1826 C   0  0  0  0  0  0  0  0  0  0  0  0
  -22.8297  -33.6637   36.9945 C   0  0  0  0  0  0  0  0  0  0  0  0
  -23.8888  -33.8002   40.7230 C   0  0  0  0  0  0  0  0  0  0  0  0
  -23.9095  -34.4605   41.9127 O   0  0  0  0  0  0  0  0  0  0  0  0
  -24.3515  -35.3636   43.9264 O   0  0  0  0  0  0  0  0  0  0  0  0
  -25.9808  -34.0566   42.6875 O   0  0  0  0  0  1  0  0  0  0  0  0
  -26.2027  -33.3952   39.0468 C   0  0  0  0  0  0  0  0  0  0  0  0
  -23.1064  -33.7853   39.5524 C   0  0  0  0  0  0  0  0  0  0  0  0
  -21.7975  -33.8020   38.9734 C   0  0  0  0  0  0  0  0  0  0  0  0
  2  1  2  0
  4  2  1  0
  7  2  1  0
  7  3  2  0
  7  6  1  0
  9  5  1  0
  9  8  1  0
 10  5  1  0
 11  5  1  0
 12  1  1  0
 13  1  1  0
 13  8  1  0
 14  3  1  0
 14 13  2  0
M  RAD  2   5   2  11   2
M  END
>  <ID>  (1) 
conformer_0

$$$$
