
     RDKit          3D

 17 17  0  0  0  0  0  0  0  0999 V2000
  -24.4701  -33.8916   38.4037 C   0  0  0  0  0  0  0  0  0  0  0  0
  -22.6242  -33.4123   36.8035 C   0  0  0  0  0  0  0  0  0  0  0  0
  -26.1819  -33.6730   39.2574 C   0  0  0  0  0  0  0  0  0  0  0  0
  -24.8694  -34.7329   42.8918 P   0  0  0  0  0  0  0  0  0  0  0  0
  -22.4431  -33.3612   35.2636 C   0  0  0  0  0  0  0  0  0  0  0  0
  -23.7311  -35.1161   41.3829 O   0  0  0  0  0  0  0  0  0  0  0  0
  -23.7789  -34.1677   40.3769 C   0  0  0  0  0  0  0  0  0  0  0  0
  -25.1576  -33.3560   36.2607 O   0  0  0  0  0  0  0  0  0  0  0  0
  -22.0245  -33.7648   38.8297 C   0  0  0  0  0  0  0  0  0  0  0  0
  -21.7916  -33.5577   37.6116 N   0  0  0  0  0  0  0  0  0  0  0  0
  -24.0257  -34.5976   44.1110 O   0  0  0  0  0  0  0  0  0  0  0  0
  -26.2659  -34.2212   42.4791 O   0  0  0  0  0  0  0  0  0  0  0  0
  -21.1445  -33.8540   39.4731 O   0  0  0  0  0  0  0  0  0  0  0  0
  -23.4068  -33.9318   39.3835 C   0  0  0  0  0  0  0  0  0  0  0  0
  -24.3440  -33.3236   42.1107 O   0  0  0  0  0  0  0  0  0  0  0  0
  -25.0762  -35.9768   43.0496 O   0  0  0  0  0  0  0  0  0  0  0  0
  -24.2577  -33.5920   36.9544 C   0  0  0  0  0  0  0  0  0  0  0  0
  3  1  1  0
  5  2  1  0
  7  6  1  0
 10  2  1  0
 10  9  2  0
 11  4  1  0
 12  4  1  0
 12  7  1  0
 13  9  1  0
 14  1  1  0
 14  7  1  0
 14  9  1  0
 15  7  1  0
 16  4  1  0
 17  1  2  0
 17  2  1  0
 17  8  1  0
M  END
>  <ID>  (1) 
conformer_0

$$$$
