
     RDKit          3D

 15 16  0  0  0  0  0  0  0  0999 V2000
  -22.9733  -33.7685   39.4829 C   0  0  0  0  0  0  0  0  0  0  0  0
  -22.7707  -33.4088   36.9173 C   0  0  0  0  0  0  0  0  0  0  0  0
  -22.2209  -33.4167   37.2993 N   0  0  0  0  0  0  0  0  0  0  0  0
  -23.6945  -34.2104   41.7606 O   0  0  0  0  0  1  0  0  0  0  0  0
  -24.8084  -34.8036   42.9706 P   0  0  0  0  0  0  0  0  0  0  0  0
  -21.8542  -33.6483   38.9190 C   0  0  0  0  0  0  0  0  0  0  0  0
  -26.0393  -34.5738   42.5871 O   0  0  0  0  0  0  0  0  0  0  0  0
  -24.9877  -33.7056   36.2112 O   0  0  0  0  0  0  0  0  0  0  0  0
  -24.3973  -36.0143   43.2989 O   0  0  0  0  0  0  0  0  0  0  0  0
  -22.7307  -33.3232   35.2298 C   0  0  0  0  0  0  0  0  0  0  0  0
  -24.1044  -34.0948   40.5760 C   0  0  0  0  0  0  0  0  0  0  0  0
  -25.6741  -34.0647   39.5965 C   0  0  0  0  0  0  0  0  0  0  0  0
  -24.3110  -33.8684   38.8608 C   0  0  0  0  0  0  0  0  0  0  0  0
  -24.2813  -34.1129   44.0596 O   0  0  0  0  0  0  0  0  0  0  0  0
  -24.1842  -33.8010   37.1906 C   0  0  0  0  0  3  0  0  0  0  0  0
  3  2  2  0
  6  1  2  0
  6  3  1  0
  7  5  1  0
  9  5  1  0
 10  2  1  0
 11  1  1  0
 11  4  1  0
 11  7  1  0
 13  1  1  0
 13 11  1  0
 13 12  1  0
 14  5  1  0
 15  2  1  0
 15  8  1  0
 15 13  1  0
M  RAD  2   4   2  15   2
M  END
>  <ID>  (1) 
conformer_0

$$$$
