
     RDKit          3D

 15 16  0  0  0  0  0  0  0  0999 V2000
  -23.1730  -33.8739   39.4432 C   0  0  0  0  0  0  0  0  0  0  0  0
  -24.1486  -33.7579   37.1009 C   0  0  0  0  0  0  0  0  0  0  0  0
  -22.5200  -33.5933   35.1626 C   0  0  0  0  0  0  0  0  0  0  0  0
  -25.2628  -33.6473   36.3357 O   0  0  0  0  0  0  0  0  0  0  0  0
  -21.7451  -33.5697   37.7027 N   0  0  0  0  0  0  0  0  0  0  0  0
  -23.8490  -34.2303   41.7406 O   0  0  0  0  0  0  0  0  0  0  0  0
  -22.6243  -33.5360   36.7852 C   0  0  0  0  0  0  0  0  0  0  0  0
  -23.9440  -33.8919   40.4825 C   0  0  0  0  0  0  0  0  0  0  0  0
  -24.8481  -34.7614   42.8619 P   0  0  0  0  0  0  0  0  0  0  0  0
  -23.9864  -34.6314   44.0164 O   0  0  0  0  0  0  0  0  0  0  0  0
  -26.1263  -34.2537   42.4890 O   0  0  0  0  0  0  0  0  0  0  0  0
  -25.6166  -33.9201   39.6365 C   0  0  0  0  0  0  0  0  0  0  0  0
  -24.1763  -33.8847   38.5564 C   0  0  0  0  0  0  0  0  0  0  0  0
  -21.9266  -33.7753   38.8867 C   0  0  0  0  0  0  0  0  0  0  0  0
  -24.8488  -35.9543   42.7314 O   0  0  0  0  0  0  0  0  0  0  0  0
  4  2  1  0
  7  2  2  0
  7  3  1  0
  7  5  1  0
  8  1  1  0
  8  6  1  0
 10  9  1  0
 11  9  1  0
 12  8  1  0
 12 11  1  0
 13  1  2  0
 13  2  1  0
 13 12  1  0
 14  1  1  0
 14  5  2  0
 15  9  1  0
M  END
>  <ID>  (1) 
conformer_0

$$$$
