
     RDKit          3D

 15 15  0  0  0  0  0  0  0  0999 V2000
  -22.6976  -33.4021   37.0749 C   0  0  0  0  0  0  0  0  0  0  0  0
  -23.4247  -33.7169   39.5444 C   0  0  0  0  0  0  0  0  0  0  0  0
  -21.9098  -33.4258   37.7789 N   0  0  0  0  0  0  0  0  0  0  0  0
  -25.3191  -33.4983   36.4618 O   0  0  0  0  0  0  0  0  0  0  0  0
  -22.0976  -33.6634   39.0715 C   0  0  0  0  0  0  0  0  0  0  0  0
  -22.6839  -33.2264   35.3613 C   0  0  0  0  0  0  0  0  0  0  0  0
  -23.9158  -34.8948   41.5845 O   0  0  0  0  0  0  0  0  0  0  0  0
  -24.8921  -35.1129   42.7667 P   0  0  0  0  0  0  0  0  0  0  0  0
  -25.8548  -33.5322   39.6028 C   0  0  0  0  0  0  0  0  0  0  0  0
  -24.0445  -33.9502   40.8086 C   0  0  0  0  0  0  0  0  0  0  0  0
  -24.0660  -34.6838   43.9268 O   0  0  0  0  0  0  0  0  0  0  0  0
  -26.0440  -34.4705   42.4380 O   0  0  0  0  0  0  0  0  0  0  0  0
  -25.0607  -36.3990   42.9676 O   0  0  0  0  0  0  0  0  0  0  0  0
  -24.5422  -33.6729   38.6932 C   0  0  0  0  0  0  0  0  0  0  0  0
  -24.1957  -33.6054   37.1877 C   0  0  0  0  0  0  0  0  0  0  0  0
  3  1  2  0
  5  2  2  0
  5  3  1  0
  6  1  1  0
 10  2  1  0
 10  7  2  0
 11  8  1  0
 12  8  1  0
 12 10  1  0
 13  8  1  0
 14  2  1  0
 14  9  1  0
 15  1  1  0
 15  4  1  0
 15 14  2  0
M  END
>  <ID>  (1) 
conformer_0

$$$$
