
     RDKit          3D

 15 15  0  0  0  0  0  0  0  0999 V2000
  -23.2180  -33.8089   39.4060 C   0  0  0  0  0  0  0  0  0  0  0  0
  -22.5319  -33.2803   37.0344 C   0  0  0  0  0  0  0  0  0  0  0  0
  -24.9328  -35.1102   42.6698 P   0  0  0  0  0  0  0  0  0  0  0  0
  -25.0619  -33.4365   36.5017 O   0  0  0  0  0  0  0  0  0  0  0  0
  -21.8064  -33.6168   37.6853 N   0  0  0  0  0  0  0  0  0  0  0  0
  -26.2016  -34.7800   42.6957 O   0  0  0  0  0  0  0  0  0  0  0  0
  -21.9579  -33.7910   39.0782 C   0  0  0  0  0  0  0  0  0  0  0  0
  -24.0524  -34.8989   43.8292 O   0  0  0  0  0  0  0  0  0  0  0  0
  -23.9576  -34.4206   41.4946 O   0  0  0  0  0  0  0  0  0  0  0  0
  -22.9454  -33.2905   35.3317 C   0  0  0  0  0  0  0  0  0  0  0  0
  -23.9786  -34.1594   40.5026 C   0  0  0  0  0  0  0  0  0  0  0  0
  -25.8070  -33.7329   39.1928 C   0  0  0  0  0  0  0  0  0  0  0  0
  -24.7011  -36.3118   42.3445 O   0  0  0  0  0  0  0  0  0  0  0  0
  -24.3541  -33.7040   38.5951 C   0  0  0  0  0  0  0  0  0  0  0  0
  -24.1169  -33.5954   37.2337 C   0  0  0  0  0  0  0  0  0  0  0  0
  5  2  2  0
  6  3  1  0
  7  1  2  0
  7  5  1  0
  8  3  1  0
 10  2  1  0
 11  1  1  0
 11  6  1  0
 11  9  2  0
 13  3  1  0
 14  1  1  0
 14 12  1  0
 15  2  1  0
 15  4  1  0
 15 14  2  0
M  END
>  <ID>  (1) 
conformer_0

$$$$
