
     RDKit          3D

 15 15  0  0  0  0  0  0  0  0999 V2000
  -23.1786  -33.8458   39.5411 C   0  0  0  0  0  0  0  0  0  0  0  0
  -24.1695  -33.6208   37.2481 C   0  0  0  0  0  0  0  0  0  0  0  0
  -21.6218  -33.5838   37.7535 N   0  0  0  0  0  0  0  0  0  0  0  0
  -24.9269  -34.8493   42.9157 P   0  0  0  0  0  0  0  0  0  0  0  0
  -22.5498  -33.3166   35.4281 C   0  0  0  0  0  0  0  0  0  0  0  0
  -23.9213  -34.5028   41.7837 O   0  0  0  0  0  0  0  0  0  0  0  0
  -22.6489  -33.4820   36.9658 C   0  0  0  0  0  0  0  0  0  0  0  0
  -23.9086  -34.1276   40.5737 C   0  0  0  0  0  0  0  0  0  0  0  0
  -25.1148  -33.3622   36.6014 O   0  0  0  0  0  0  0  0  0  0  0  0
  -24.2698  -34.4869   44.0348 O   0  0  0  0  0  0  0  0  0  0  0  0
  -26.2572  -33.7204   39.1577 C   0  0  0  0  0  0  0  0  0  0  0  0
  -26.1125  -33.9777   42.2536 O   0  0  0  0  0  0  0  0  0  0  0  0
  -25.2088  -36.1086   42.7538 O   0  0  0  0  0  0  0  0  0  0  0  0
  -24.3322  -33.8512   38.8019 C   0  0  0  0  0  0  0  0  0  0  0  0
  -21.9561  -33.7668   38.9329 C   0  0  0  0  0  0  0  0  0  0  0  0
  6  4  1  0
  7  2  2  0
  7  3  1  0
  7  5  1  0
  8  1  1  0
  8  6  1  0
  9  2  1  0
 10  4  1  0
 12  8  2  0
 13  4  1  0
 14  1  2  0
 14  2  1  0
 14 11  1  0
 15  1  1  0
 15  3  2  0
M  END
>  <ID>  (1) 
conformer_0

$$$$
