
     RDKit          3D

 15 16  0  0  0  0  0  0  0  0999 V2000
  -23.3925  -33.8086   39.4707 C   0  0  0  0  0  0  0  0  0  0  0  0
  -22.6421  -33.4056   36.9456 C   0  0  0  0  0  0  0  0  0  0  0  0
  -21.9910  -33.2466   37.6706 N   0  0  0  0  0  0  0  0  0  0  0  0
  -24.8238  -35.0153   42.7578 P   0  0  0  0  0  0  0  0  0  0  0  0
  -26.0282  -34.2736   42.5041 O   0  0  0  0  0  0  0  0  0  0  0  0
  -22.3864  -33.5763   35.3204 C   0  0  0  0  0  0  0  0  0  0  0  0
  -25.0069  -33.5105   36.3486 O   0  0  0  0  0  0  0  0  0  0  0  0
  -24.4981  -34.1838   40.4462 C   0  0  0  0  0  0  0  0  0  0  0  0
  -22.0620  -33.6259   38.9506 C   0  0  0  0  0  0  0  0  0  0  0  0
  -23.8043  -34.6107   43.7453 O   0  0  0  0  0  0  0  0  0  0  0  0
  -24.0584  -35.0316   41.4573 O   0  0  0  0  0  0  0  0  0  0  0  0
  -24.4819  -33.7702   38.6692 C   0  0  0  0  0  0  0  0  0  0  0  0
  -25.0110  -36.3053   43.1775 O   0  0  0  0  0  0  0  0  0  0  0  0
  -25.9605  -33.8503   39.4411 C   0  0  0  0  0  0  0  0  0  0  0  0
  -24.2034  -33.6224   37.1894 C   0  0  0  0  0  0  0  0  0  0  0  0
  3  2  2  0
  5  4  1  0
  6  2  1  0
  8  1  1  0
  8  5  1  0
  9  1  2  0
  9  3  1  0
 10  4  1  0
 11  8  1  0
 12  1  1  0
 13  4  1  0
 14  8  1  0
 14 12  1  0
 15  2  1  0
 15  7  1  0
 15 12  2  0
M  END
>  <ID>  (1) 
conformer_0

$$$$
