
     RDKit          3D

 15 16  0  0  0  0  0  0  0  0999 V2000
  -24.6011  -33.7429   38.7937 C   0  0  0  0  0  0  0  0  0  0  0  0
  -24.2533  -33.7351   37.2032 C   0  0  0  0  0  0  0  0  0  0  0  0
  -22.9103  -33.2202   35.1052 C   0  0  0  0  0  0  0  0  0  0  0  0
  -22.8021  -33.4275   36.7979 C   0  0  0  0  0  0  0  0  0  0  0  0
  -24.8428  -34.9534   43.1001 P   0  0  0  0  0  0  0  0  0  0  0  0
  -22.2575  -33.5300   37.4636 N   0  0  0  0  0  0  0  0  0  0  0  0
  -26.0957  -34.6245   42.7426 O   0  0  0  0  0  0  0  0  0  0  0  0
  -24.1093  -34.3039   44.0516 O   0  0  0  0  0  0  0  0  0  0  0  0
  -25.3254  -33.6450   36.3623 O   0  0  0  0  0  0  0  0  0  0  0  0
  -24.4106  -33.8190   40.9686 C   0  0  0  0  0  0  0  0  0  0  0  0
  -25.6250  -33.5947   39.6964 C   0  0  0  0  0  0  0  0  0  0  0  0
  -24.0626  -34.5340   41.8801 O   0  0  0  0  0  0  0  0  0  0  0  0
  -24.5314  -36.3677   43.3777 O   0  0  0  0  0  0  0  0  0  0  0  0
  -23.4070  -33.5932   39.4708 C   0  0  0  0  0  0  0  0  0  0  0  0
  -22.2608  -33.6435   38.8384 C   0  0  0  0  0  0  0  0  0  0  0  0
  2  1  2  0
  4  2  1  0
  4  3  1  0
  6  4  2  0
  7  5  1  0
  8  5  1  0
  9  2  1  0
 10  7  1  0
 11  1  1  0
 11 10  1  0
 12 10  1  0
 13  5  1  0
 14  1  1  0
 14 10  1  0
 15  6  1  0
 15 14  2  0
M  END
>  <ID>  (1) 
conformer_0

$$$$
