
     RDKit          3D

 15 16  0  0  0  0  0  0  0  0999 V2000
  -23.2829  -33.5922   39.2896 C   0  0  0  0  0  0  0  0  0  0  0  0
  -22.8935  -33.4980   36.5219 C   0  0  0  0  0  0  0  0  0  0  0  0
  -21.9749  -33.3852   37.4535 N   0  0  0  0  0  0  0  0  0  0  0  0
  -24.9324  -35.1726   42.9200 P   0  0  0  0  0  0  0  0  0  0  0  0
  -24.2154  -33.6996   40.7569 C   0  0  0  0  0  0  0  0  0  0  0  0
  -23.9883  -34.7608   43.9009 O   0  0  0  0  0  0  0  0  0  0  0  0
  -22.5387  -33.4385   35.1850 C   0  0  0  0  0  0  0  0  0  0  0  0
  -26.2152  -34.8253   43.0930 O   0  0  0  0  0  0  0  0  0  0  0  0
  -22.1166  -33.4505   38.6320 C   0  0  0  0  0  0  0  0  0  0  0  0
  -24.9607  -33.9242   36.0423 O   0  0  0  0  0  0  0  0  0  0  0  0
  -24.2075  -34.4992   41.7312 O   0  0  0  0  0  0  0  0  0  0  0  0
  -24.9086  -36.4807   42.5486 O   0  0  0  0  0  0  0  0  0  0  0  0
  -25.5148  -34.0390   39.6967 C   0  0  0  0  0  0  0  0  0  0  0  0
  -24.3118  -33.8050   38.5830 C   0  0  0  0  0  0  0  0  0  0  0  0
  -24.3270  -33.9359   37.1514 C   0  0  0  0  0  0  0  0  0  0  0  0
  3  2  2  0
  5  1  1  0
  6  4  1  0
  7  2  1  0
  8  4  1  0
  8  5  1  0
  9  1  2  0
  9  3  1  0
 11  5  1  0
 12  4  1  0
 13  5  1  0
 14  1  1  0
 14 13  1  0
 15  2  1  0
 15 10  1  0
 15 14  2  0
M  END
>  <ID>  (1) 
conformer_0

$$$$
