
     RDKit          3D

 12 11  0  0  0  0  0  0  0  0999 V2000
  -23.8402  -33.7147   39.2008 C   0  0  1  0  0  0  0  0  0  0  0  0
  -23.7878  -33.6372   37.0098 C   0  0  1  0  0  0  0  0  0  0  0  0
  -23.8471  -33.7704   40.8553 C   0  0  0  0  0  0  0  0  0  0  0  0
  -22.8245  -33.6520   35.2387 C   0  0  0  0  0  0  0  0  0  0  0  0
  -23.8015  -34.6036   41.9078 O   0  0  0  0  0  0  0  0  0  0  0  0
  -24.8613  -35.0970   42.9097 P   0  0  1  0  0  4  0  0  0  0  0  0
  -22.2666  -33.6139   38.3636 C   0  0  0  0  0  0  0  0  0  0  0  0
  -22.0396  -33.6797   37.5406 N   0  0  0  0  0  0  0  0  0  0  0  0
  -25.3922  -33.5011   36.3281 O   0  0  0  0  0  0  0  0  0  0  0  0
  -24.6087  -35.6136   43.5235 O   0  0  0  0  0  0  0  0  0  0  0  0
  -25.9942  -34.3181   42.5823 O   0  0  0  0  0  1  0  0  0  0  0  0
  -25.8080  -34.0934   39.4782 C   0  0  0  0  0  0  0  0  0  0  0  0
  3  1  1  0
  2  4  1  6
  5  3  1  0
  6  5  1  0
  7  1  1  0
  8  2  1  0
  8  7  2  3
  9  2  1  0
  6 10  1  1
 11  6  1  0
  1 12  1  6
M  RAD  2   6   2  11   2
M  END
>  <ID>  (1) 
conformer_0

$$$$
