
     RDKit          3D

 14 14  0  0  0  0  0  0  0  0999 V2000
  -23.3871  -33.6969   39.2962 C   0  0  0  0  0  0  0  0  0  0  0  0
  -23.9625  -33.5425   36.8893 C   0  0  1  0  0  0  0  0  0  0  0  0
  -23.6531  -33.6443   40.8505 C   0  0  2  0  0  0  0  0  0  0  0  0
  -22.6412  -33.4148   35.1489 C   0  0  0  0  0  0  0  0  0  0  0  0
  -21.9144  -33.6327   37.5509 N   0  0  0  0  0  0  0  0  0  0  0  0
  -25.2346  -33.3975   36.2114 O   0  0  0  0  0  0  0  0  0  0  0  0
  -24.8006  -35.0404   42.9625 P   0  0  0  0  0  0  0  0  0  0  0  0
  -23.8172  -34.7077   41.8773 O   0  0  0  0  0  0  0  0  0  0  0  0
  -23.9296  -34.8606   44.0731 O   0  0  0  0  0  0  0  0  0  0  0  0
  -22.4628  -33.6016   37.8678 C   0  0  0  0  0  0  0  0  0  0  0  0
  -25.9141  -34.1633   42.6895 O   0  0  0  0  0  0  0  0  0  0  0  0
  -26.2641  -33.5847   39.0153 C   0  0  0  0  0  0  0  0  0  0  0  0
  -25.3499  -36.2152   42.8091 O   0  0  0  0  0  0  0  0  0  0  0  0
  -24.5620  -33.6570   38.7237 C   0  0  0  0  0  0  0  0  0  0  0  0
  3  1  1  0
  2  4  1  6
  6  2  1  0
  3  8  1  1
  9  7  1  0
 10  1  1  0
 10  2  1  0
 10  5  2  3
 11  3  1  0
 11  7  1  0
 13  7  1  0
 14  1  2  0
 14  2  1  0
 14 12  1  0
M  END
>  <ID>  (1) 
conformer_0

$$$$
