
     RDKit          3D

 16 16  0  0  0  0  0  0  0  0999 V2000
  -24.2931  -33.6145   37.2781 C   0  0  0  0  0  0  0  0  0  0  0  0
  -24.4400  -33.8209   38.8613 C   0  0  0  0  0  0  0  0  0  0  0  0
  -24.9953  -35.0436   42.9450 P   0  0  0  0  0  0  0  0  0  0  0  0
  -22.1452  -33.7353   38.8770 C   0  0  0  0  0  0  0  0  0  0  0  0
  -26.1924  -34.4818   42.6502 O   0  0  0  0  0  0  0  0  0  0  0  0
  -22.6419  -33.5323   35.4211 C   0  0  0  0  0  0  0  0  0  0  0  0
  -25.3795  -33.4028   36.4475 O   0  0  0  0  0  0  0  0  0  0  0  0
  -24.1110  -33.8793   40.8140 C   0  0  0  0  0  0  0  0  0  0  0  0
  -25.0955  -36.4421   42.6223 O   0  0  0  0  0  0  0  0  0  0  0  0
  -23.8608  -34.6304   42.0130 O   0  0  0  0  0  0  0  0  0  0  0  0
  -25.6420  -34.1348   39.5219 C   0  0  0  0  0  0  0  0  0  0  0  0
  -22.1986  -33.5738   37.6014 N   0  0  0  0  0  0  0  0  0  0  0  0
  -21.3119  -33.7994   39.2161 O   0  0  0  0  0  0  0  0  0  0  0  0
  -24.3323  -34.6430   43.9834 O   0  0  0  0  0  0  0  0  0  0  0  0
  -22.8364  -33.5023   36.9834 C   0  0  0  0  0  0  0  0  0  0  0  0
  -23.1773  -33.7069   39.6456 C   0  0  0  0  0  0  0  0  0  0  0  0
  2  1  1  0
  5  3  1  0
  7  1  1  0
  8  5  1  0
  9  3  1  0
 10  8  2  0
 11  2  1  0
 12  4  2  0
 13  4  1  0
 14  3  1  0
 15  1  1  0
 15  6  1  0
 15 12  1  0
 16  2  2  0
 16  4  1  0
 16  8  1  0
M  END
>  <ID>  (1) 
conformer_0

$$$$
