
     RDKit          3D

 14 15  0  0  0  0  0  0  0  0999 V2000
  -23.2585  -33.8245   39.8308 C   0  0  0  0  0  0  0  0  0  0  0  0
  -24.0803  -33.7094   37.2010 C   0  0  0  0  0  0  0  0  0  0  0  0
  -24.7528  -34.9548   42.9316 P   0  0  0  0  0  4  0  0  0  0  0  0
  -25.3900  -33.4437   36.4512 O   0  0  0  0  0  0  0  0  0  0  0  0
  -21.6561  -33.8280   38.0992 N   0  0  0  0  0  0  0  0  0  0  0  0
  -23.3680  -34.6902   42.3295 O   0  0  0  0  0  1  0  0  0  0  0  0
  -21.8749  -33.8959   39.4195 C   0  0  0  0  0  0  0  0  0  0  0  0
  -22.9357  -33.3698   35.6104 C   0  0  0  0  0  0  0  0  0  0  0  0
  -24.3156  -33.8670   40.5926 C   0  0  0  0  0  0  0  0  0  0  0  0
  -25.1449  -35.2614   43.3738 O   0  0  0  0  0  0  0  0  0  0  0  0
  -25.7413  -33.8521   39.3916 C   0  0  0  0  0  0  0  0  0  0  0  0
  -24.0609  -33.7667   38.6318 C   0  0  0  0  0  0  0  0  0  0  0  0
  -25.1031  -34.3390   41.7544 O   0  0  0  0  0  0  0  0  0  0  0  0
  -22.3748  -33.5068   37.3648 C   0  0  0  0  0  0  0  0  0  0  0  0
  4  2  1  0
  6  3  1  0
  7  1  2  0
  7  5  1  0
  9  1  1  0
 10  3  1  0
 11  9  1  0
 12  1  1  0
 12  2  2  0
 12 11  1  0
 13  3  1  0
 13  9  1  0
 14  2  1  0
 14  5  2  0
 14  8  1  0
M  RAD  2   3   2   6   2
M  END
>  <ID>  (1) 
conformer_0

$$$$
