
     RDKit          3D

 15 15  0  0  0  0  0  0  0  0999 V2000
  -24.1272  -33.5167   37.0860 C   0  0  0  0  0  0  0  0  0  0  0  0
  -23.4574  -33.7654   39.4718 C   0  0  0  0  0  0  0  0  0  0  0  0
  -21.6678  -33.6459   37.9989 N   0  0  0  0  0  0  0  0  0  0  0  0
  -22.1120  -33.7686   39.1737 C   0  0  0  0  0  0  0  0  0  0  0  0
  -23.8268  -34.5467   41.7944 O   0  0  0  0  0  0  0  0  0  0  0  0
  -22.5992  -33.5093   35.3131 C   0  0  0  0  0  0  0  0  0  0  0  0
  -24.8687  -35.2021   42.9661 P   0  0  0  0  0  0  0  0  0  0  0  0
  -24.0360  -34.2669   40.5594 C   0  0  0  0  0  0  0  0  0  0  0  0
  -24.2445  -34.8649   44.0572 O   0  0  0  0  0  0  0  0  0  0  0  0
  -25.3694  -33.2237   36.3677 O   0  0  0  0  0  0  0  0  0  0  0  0
  -26.0525  -33.4747   39.0611 C   0  0  0  0  0  0  0  0  0  0  0  0
  -25.9607  -34.7864   42.4266 O   0  0  0  0  0  0  0  0  0  0  0  0
  -24.8506  -36.7798   42.9699 O   0  0  0  0  0  0  0  0  0  0  0  0
  -24.4566  -33.6182   38.5770 C   0  0  0  0  0  0  0  0  0  0  0  0
  -22.6222  -33.4948   37.1125 C   0  0  0  0  0  0  0  0  0  0  0  0
  4  2  2  0
  4  3  1  0
  8  2  1  0
  8  5  2  0
  9  7  1  0
 10  1  1  0
 12  7  1  0
 12  8  1  0
 13  7  1  0
 14  1  2  0
 14  2  1  0
 14 11  1  0
 15  1  1  0
 15  3  2  0
 15  6  1  0
M  END
>  <ID>  (1) 
conformer_0

$$$$
