
     RDKit          3D

 15 15  0  0  0  0  0  0  0  0999 V2000
  -23.6341  -33.8906   39.5676 C   0  0  0  0  0  0  0  0  0  0  0  0
  -22.5882  -33.2595   37.0026 C   0  0  0  0  0  0  0  0  0  0  0  0
  -21.9562  -33.4479   37.9883 N   0  0  0  0  0  0  0  0  0  0  0  0
  -24.6141  -34.9226   42.6771 P   0  0  0  0  0  0  0  0  0  0  0  0
  -25.3037  -33.3188   36.3113 O   0  0  0  0  0  0  0  0  0  0  0  0
  -22.6330  -33.2349   35.4070 C   0  0  0  0  0  0  0  0  0  0  0  0
  -23.6529  -34.1693   41.6779 O   0  0  0  0  0  0  0  0  0  0  0  0
  -22.2213  -33.7234   39.1212 C   0  0  0  0  0  0  0  0  0  0  0  0
  -24.0804  -34.0641   40.4877 C   0  0  0  0  0  0  0  0  0  0  0  0
  -26.0639  -33.5699   38.7634 C   0  0  0  0  0  0  0  0  0  0  0  0
  -24.0485  -34.7108   43.6184 O   0  0  0  0  0  0  0  0  0  0  0  0
  -25.6441  -34.4960   41.7656 O   0  0  0  0  0  0  0  0  0  0  0  0
  -24.9286  -36.3644   42.6580 O   0  0  0  0  0  0  0  0  0  0  0  0
  -24.4347  -33.7124   38.4870 C   0  0  0  0  0  0  0  0  0  0  0  0
  -24.1618  -33.5031   37.1429 C   0  0  0  0  0  0  0  0  0  0  0  0
  3  2  2  0
  6  2  1  0
  8  1  2  0
  8  3  1  0
  9  1  1  0
  9  7  2  0
 11  4  1  0
 12  4  1  0
 12  9  1  0
 13  4  1  0
 14  1  1  0
 14 10  1  0
 15  2  1  0
 15  5  1  0
 15 14  2  0
M  END
>  <ID>  (1) 
conformer_0

$$$$
