
     RDKit          3D

 15 15  0  0  0  0  0  0  0  0999 V2000
  -23.2201  -33.6365   39.4391 C   0  0  0  0  0  0  0  0  0  0  0  0
  -22.6911  -33.4897   36.7830 C   0  0  0  0  0  0  0  0  0  0  0  0
  -23.8013  -33.7447   40.7649 C   0  0  0  0  0  0  0  0  0  0  0  0
  -21.9969  -33.6063   37.6251 N   0  0  0  0  0  0  0  0  0  0  0  0
  -24.8719  -34.8288   42.8518 P   0  0  0  0  0  0  0  0  0  0  0  0
  -22.5269  -33.4223   35.2243 C   0  0  0  0  0  0  0  0  0  0  0  0
  -23.7777  -34.0912   41.9809 O   0  0  0  0  0  0  0  0  0  0  0  0
  -25.8127  -33.7648   39.4505 C   0  0  0  0  0  0  0  0  0  0  0  0
  -22.1168  -33.6250   38.8343 C   0  0  0  0  0  0  0  0  0  0  0  0
  -24.2902  -34.7415   44.0196 O   0  0  0  0  0  0  0  0  0  0  0  0
  -26.1606  -34.3156   42.4540 O   0  0  0  0  0  0  0  0  0  0  0  0
  -24.9961  -36.1237   42.2034 O   0  0  0  0  0  0  0  0  0  0  0  0
  -25.0583  -33.9086   36.2715 O   0  0  0  0  0  0  0  0  0  0  0  0
  -24.4573  -33.7895   38.7132 C   0  0  0  0  0  0  0  0  0  0  0  0
  -24.2006  -33.8492   37.1770 C   0  0  0  0  0  0  0  0  0  0  0  0
  3  1  1  0
  4  2  2  0
  6  2  1  0
  7  3  2  0
  9  1  2  0
  9  4  1  0
 10  5  1  0
 11  3  1  0
 11  5  1  0
 12  5  1  0
 14  1  1  0
 14  8  1  0
 15  2  1  0
 15 13  1  0
 15 14  2  0
M  END
>  <ID>  (1) 
conformer_0

$$$$
