
     RDKit          3D

 13 13  0  0  0  0  0  0  0  0999 V2000
  -23.5043  -33.9111   39.4797 C   0  0  0  0  0  0  0  0  0  0  0  0
  -24.5062  -33.6747   37.0703 C   0  0  0  0  0  0  0  0  0  0  0  0
  -23.9273  -33.8106   40.7318 C   0  0  0  0  0  0  0  0  0  0  0  0
  -25.6057  -33.2971   36.3257 O   0  0  0  0  0  0  0  0  0  0  0  0
  -22.1506  -33.6573   37.6683 N   0  0  0  0  0  0  0  0  0  0  0  0
  -24.6575  -35.1047   42.9031 P   0  0  0  0  0  4  0  0  0  0  0  0
  -23.6887  -34.5356   41.7666 O   0  0  0  0  0  0  0  0  0  0  0  0
  -22.8711  -33.4315   35.4400 C   0  0  0  0  0  0  0  0  0  0  0  0
  -24.1648  -35.0829   43.7966 O   0  0  0  0  0  0  0  0  0  0  0  0
  -22.9575  -33.4919   36.8850 C   0  0  0  0  0  0  0  0  0  0  0  0
  -25.8866  -34.8805   42.4321 O   0  0  0  0  0  1  0  0  0  0  0  0
  -24.5507  -33.9829   38.5896 C   0  0  0  0  0  0  0  0  0  0  0  0
  -22.1696  -33.6618   38.8235 C   0  0  0  0  0  0  0  0  0  0  0  0
  3  1  1  0
  4  2  1  0
  7  3  1  0
  7  6  1  0
  9  6  1  0
 10  2  2  0
 10  5  1  0
 10  8  1  0
 11  6  1  0
 12  1  2  0
 12  2  1  0
 13  1  1  0
 13  5  2  0
M  RAD  2   6   2  11   2
M  END
>  <ID>  (1) 
conformer_0

$$$$
