
     RDKit          3D

 15 16  0  0  0  0  0  0  0  0999 V2000
  -24.6105  -33.7218   38.5972 C   0  0  0  0  0  0  0  0  0  0  0  0
  -24.3414  -33.5965   37.1382 C   0  0  0  0  0  0  0  0  0  0  0  0
  -25.3696  -33.3117   36.3682 O   0  0  0  0  0  0  0  0  0  0  0  0
  -22.1204  -33.6385   37.8219 N   0  0  0  0  0  0  0  0  0  0  0  0
  -23.7673  -34.4546   41.7278 O   0  0  0  0  0  0  0  0  0  0  0  0
  -24.7485  -34.8623   42.9588 P   0  0  0  0  0  0  0  0  0  0  0  0
  -22.6630  -33.3806   35.3105 C   0  0  0  0  0  0  0  0  0  0  0  0
  -22.7938  -33.5346   37.0030 C   0  0  0  0  0  0  0  0  0  0  0  0
  -24.2938  -33.9369   40.6570 C   0  0  0  0  0  0  0  0  0  0  0  0
  -26.0750  -34.3297   42.4624 O   0  0  0  0  0  0  0  0  0  0  0  0
  -24.0580  -34.5841   43.9889 O   0  0  0  0  0  0  0  0  0  0  0  0
  -25.8033  -33.8074   39.5666 C   0  0  0  0  0  0  0  0  0  0  0  0
  -24.8878  -36.2392   42.6438 O   0  0  0  0  0  0  0  0  0  0  0  0
  -23.6646  -33.8379   39.5801 C   0  0  0  0  0  0  0  0  0  0  0  0
  -22.2375  -33.7418   39.1158 C   0  0  0  0  0  0  0  0  0  0  0  0
  2  1  2  0
  3  2  1  0
  8  2  1  0
  8  4  2  0
  8  7  1  0
  9  5  1  0
 10  6  1  0
 10  9  1  0
 11  6  1  0
 12  1  1  0
 12  9  1  0
 13  6  1  0
 14  1  1  0
 14  9  1  0
 15  4  1  0
 15 14  2  0
M  END
>  <ID>  (1) 
conformer_0

$$$$
