
     RDKit          3D

 16 16  0  0  0  0  0  0  0  0999 V2000
  -23.1818  -33.8249   39.4765 C   0  0  0  0  0  0  0  0  0  0  0  0
  -24.2750  -33.7787   37.2515 C   0  0  0  0  0  0  0  0  0  0  0  0
  -25.6608  -33.9135   39.7917 C   0  0  0  0  0  0  0  0  0  0  0  0
  -24.8384  -34.7614   42.9350 P   0  0  0  0  0  0  0  0  0  0  0  0
  -26.1527  -34.2226   42.6722 O   0  0  0  0  0  0  0  0  0  0  0  0
  -22.4536  -33.2647   35.4828 C   0  0  0  0  0  0  0  0  0  0  0  0
  -23.6507  -34.4801   42.0753 O   0  0  0  0  0  0  0  0  0  0  0  0
  -22.8710  -33.5403   36.8343 C   0  0  0  0  0  0  0  0  0  0  0  0
  -23.5662  -33.9943   40.8477 C   0  0  0  0  0  0  0  0  0  0  0  0
  -25.3188  -33.6186   36.3715 O   0  0  0  0  0  0  0  0  0  0  0  0
  -24.1766  -34.6245   44.1315 O   0  0  0  0  0  0  0  0  0  0  0  0
  -21.6996  -33.6258   37.8058 N   0  0  0  0  0  0  0  0  0  0  0  0
  -21.1313  -33.6729   39.3193 O   0  0  0  0  0  0  0  0  0  0  0  0
  -24.3471  -33.8732   38.8047 C   0  0  0  0  0  0  0  0  0  0  0  0
  -24.9924  -36.0871   42.7212 O   0  0  0  0  0  0  0  0  0  0  0  0
  -22.1127  -33.7197   38.6564 C   0  0  0  0  0  0  0  0  0  0  0  0
  5  3  1  0
  5  4  1  0
  8  2  1  0
  8  6  1  0
  9  1  2  0
  9  7  2  0
 10  2  1  0
 11  4  1  0
 12  8  1  0
 14  1  1  0
 14  2  2  0
 14  3  1  0
 15  4  1  0
 16  1  1  0
 16 12  2  0
 16 13  1  0
M  END
>  <ID>  (1) 
conformer_0

$$$$
