
     RDKit          3D

 15 15  0  0  0  0  0  0  0  0999 V2000
  -24.0164  -33.8905   37.2145 C   0  0  0  0  0  0  0  0  0  0  0  0
  -23.0840  -33.7568   39.5646 C   0  0  0  0  0  0  0  0  0  0  0  0
  -21.7756  -33.6098   37.7879 N   0  0  0  0  0  0  0  0  0  0  0  0
  -23.6177  -34.2606   41.6139 O   0  0  0  0  0  0  0  0  0  0  0  0
  -26.2104  -34.0167   42.4890 O   0  0  0  0  0  0  0  0  0  0  0  0
  -24.8905  -34.6707   42.6922 P   0  0  0  0  0  0  0  0  0  0  0  0
  -22.4510  -33.3572   35.2191 C   0  0  0  0  0  0  0  0  0  0  0  0
  -23.8420  -33.7310   40.5561 C   0  0  0  0  0  0  0  0  0  0  0  0
  -24.9683  -33.7469   36.2754 O   0  0  0  0  0  0  0  0  0  0  0  0
  -22.5676  -33.4841   36.8371 C   0  0  0  0  0  0  0  0  0  0  0  0
  -25.7406  -34.1429   39.3709 C   0  0  0  0  0  0  0  0  0  0  0  0
  -24.9870  -36.0086   42.5516 O   0  0  0  0  0  0  0  0  0  0  0  0
  -24.1149  -34.2998   43.7980 O   0  0  0  0  0  0  0  0  0  0  0  0
  -21.9730  -33.6747   38.9539 C   0  0  0  0  0  0  0  0  0  0  0  0
  -24.2391  -33.9585   38.7300 C   0  0  0  0  0  0  0  0  0  0  0  0
  6  5  1  0
  8  2  1  0
  8  4  2  0
  8  5  1  0
  9  1  1  0
 10  1  2  0
 10  3  1  0
 10  7  1  0
 12  6  1  0
 13  6  1  0
 14  2  1  0
 14  3  2  0
 15  1  1  0
 15  2  2  0
 15 11  1  0
M  END
>  <ID>  (1) 
conformer_0

$$$$
