
     RDKit          3D

 15 15  0  0  0  0  0  0  0  0999 V2000
  -24.2524  -33.8601   38.8027 C   0  0  0  0  0  0  0  0  0  0  0  0
  -24.1866  -33.8011   37.2408 C   0  0  0  0  0  0  0  0  0  0  0  0
  -21.7498  -33.7232   37.6322 N   0  0  0  0  0  0  0  0  0  0  0  0
  -22.7372  -33.3626   35.2014 C   0  0  0  0  0  0  0  0  0  0  0  0
  -24.8908  -34.8994   42.9735 P   0  0  0  0  0  0  0  0  0  0  0  0
  -24.0140  -33.9895   40.6596 C   0  0  0  0  0  0  0  0  0  0  0  0
  -21.9653  -33.7405   38.8088 C   0  0  0  0  0  0  0  0  0  0  0  0
  -24.0212  -34.3411   41.7756 O   0  0  0  0  0  0  0  0  0  0  0  0
  -25.2779  -33.5787   36.3663 O   0  0  0  0  0  0  0  0  0  0  0  0
  -25.8385  -33.7835   39.7004 C   0  0  0  0  0  0  0  0  0  0  0  0
  -24.0969  -34.4749   44.0578 O   0  0  0  0  0  0  0  0  0  0  0  0
  -26.1589  -34.8291   42.9564 O   0  0  0  0  0  0  0  0  0  0  0  0
  -24.5341  -36.3024   42.7479 O   0  0  0  0  0  0  0  0  0  0  0  0
  -23.1282  -33.7595   39.4658 C   0  0  0  0  0  0  0  0  0  0  0  0
  -22.7416  -33.5420   36.7573 C   0  0  0  0  0  0  0  0  0  0  0  0
  2  1  2  0
  7  3  1  0
  8  6  2  0
  9  2  1  0
 10  1  1  0
 11  5  1  0
 12  5  1  0
 12  6  1  0
 13  5  1  0
 14  1  1  0
 14  6  1  0
 14  7  2  0
 15  2  1  0
 15  3  2  0
 15  4  1  0
M  END
>  <ID>  (1) 
conformer_0

$$$$
