
     RDKit          3D

 16 16  0  0  0  0  0  0  0  0999 V2000
  -23.1527  -33.6519   39.5226 C   0  0  0  0  0  0  0  0  0  0  0  0
  -24.3033  -33.6645   37.2369 C   0  0  0  0  0  0  0  0  0  0  0  0
  -21.7738  -33.4950   37.7468 N   0  0  0  0  0  0  0  0  0  0  0  0
  -24.6950  -35.1658   42.8067 P   0  0  0  0  0  0  0  0  0  0  0  0
  -23.8690  -33.4946   41.6864 O   0  0  0  0  0  0  0  0  0  0  0  0
  -25.3707  -33.5077   36.3634 O   0  0  0  0  0  0  0  0  0  0  0  0
  -26.3607  -33.4659   39.1293 C   0  0  0  0  0  0  0  0  0  0  0  0
  -23.6883  -33.7104   40.5553 C   0  0  0  0  0  0  0  0  0  0  0  0
  -22.5977  -33.5751   35.3875 C   0  0  0  0  0  0  0  0  0  0  0  0
  -26.1295  -34.8560   42.8871 O   0  0  0  0  0  0  0  0  0  0  0  0
  -22.7501  -33.5017   36.9370 C   0  0  0  0  0  0  0  0  0  0  0  0
  -23.9038  -34.7902   43.8705 O   0  0  0  0  0  0  0  0  0  0  0  0
  -24.8268  -36.6536   42.7474 O   0  0  0  0  0  0  0  0  0  0  0  0
  -24.3705  -33.6548   38.7204 C   0  0  0  0  0  0  0  0  0  0  0  0
  -21.9350  -33.6178   38.9338 C   0  0  0  0  0  0  0  0  0  0  0  0
  -23.9339  -35.2428   41.3467 O   0  0  0  0  0  0  0  0  0  0  0  0
  6  2  1  0
  8  1  1  0
  8  5  1  0
 10  4  1  0
 10  8  1  0
 11  2  2  0
 11  3  1  0
 11  9  1  0
 12  4  1  0
 13  4  1  0
 14  1  2  0
 14  2  1  0
 14  7  1  0
 15  1  1  0
 15  3  2  0
 16  8  1  0
M  END
>  <ID>  (1) 
conformer_0

$$$$
