
     RDKit          3D

 12 12  0  0  0  0  0  0  0  0999 V2000
  -24.6539  -33.7498   38.6287 C   0  0  0  0  0  0  0  0  0  0  0  0
  -23.9229  -33.5766   36.9035 C   0  0  0  0  0  0  0  0  0  0  0  0
  -24.1501  -33.9442   40.6798 C   0  0  0  0  0  0  0  0  0  0  0  0
  -22.5834  -33.5248   35.3521 C   0  0  0  0  0  0  0  0  0  0  0  0
  -24.7979  -34.9588   42.9669 P   0  0  0  0  0  4  0  0  0  0  0  0
  -23.9753  -34.3350   41.8611 O   0  0  0  0  0  0  0  0  0  0  0  0
  -25.1838  -33.6586   36.3904 O   0  0  0  0  0  0  0  0  0  0  0  0
  -22.3229  -33.4647   37.5730 N   0  0  0  0  0  0  0  0  0  0  0  0
  -22.5335  -33.5592   38.0537 C   0  0  0  0  0  0  0  0  0  0  0  0
  -24.4416  -35.7055   43.4493 O   0  0  0  0  0  0  0  0  0  0  0  0
  -25.9062  -34.3290   42.6279 O   0  0  0  0  0  1  0  0  0  0  0  0
  -23.5901  -33.7642   39.4235 C   0  0  0  0  0  0  0  0  0  0  0  0
  2  1  1  0
  6  3  1  0
  6  5  1  0
  7  2  1  0
  8  2  1  0
  8  4  1  0
  9  8  1  0
 10  5  1  0
 11  5  1  0
 12  1  2  0
 12  3  1  0
 12  9  1  0
M  RAD  2   5   2  11   2
M  END
>  <ID>  (1) 
conformer_0

$$$$
