
     RDKit          3D

 15 15  0  0  0  0  0  0  0  0999 V2000
  -24.3944  -33.7052   37.1539 C   0  0  0  0  0  0  0  0  0  0  0  0
  -23.3283  -33.7177   39.3993 C   0  0  0  0  0  0  0  0  0  0  0  0
  -23.6661  -33.6068   40.8652 C   0  0  0  0  0  0  0  0  0  0  0  0
  -22.4842  -33.8080   35.0460 C   0  0  0  0  0  0  0  0  0  0  0  0
  -25.2784  -33.6278   36.1651 O   0  0  0  0  0  0  0  0  0  0  0  0
  -24.9502  -35.0561   42.9135 P   0  0  0  0  0  0  0  0  0  0  0  0
  -21.9752  -33.6826   37.6338 N   0  0  0  0  0  0  0  0  0  0  0  0
  -23.8577  -35.1234   43.9590 O   0  0  0  0  0  0  0  0  0  0  0  0
  -22.1954  -33.6758   38.7410 C   0  0  0  0  0  0  0  0  0  0  0  0
  -26.0383  -34.3948   43.0106 O   0  0  0  0  0  0  0  0  0  0  0  0
  -25.6877  -33.6706   39.1935 C   0  0  0  0  0  0  0  0  0  0  0  0
  -24.2956  -34.1067   41.9235 O   0  0  0  0  0  0  0  0  0  0  0  0
  -24.8941  -36.4413   42.6267 O   0  0  0  0  0  0  0  0  0  0  0  0
  -24.5271  -33.6798   38.5850 C   0  0  0  0  0  0  0  0  0  0  0  0
  -22.8105  -33.7132   36.7122 C   0  0  0  0  0  0  0  0  0  0  0  0
  3  2  1  0
  5  1  1  0
  8  6  1  0
  9  2  2  0
  9  7  1  0
 10  3  1  0
 10  6  1  0
 12  3  1  0
 13  6  1  0
 14  1  2  0
 14  2  1  0
 14 11  1  0
 15  1  1  0
 15  4  1  0
 15  7  2  0
M  END
>  <ID>  (1) 
conformer_0

$$$$
