
     RDKit          3D

 15 15  0  0  0  0  0  0  0  0999 V2000
  -24.4905  -33.8421   38.3062 C   0  0  0  0  0  0  0  0  0  0  0  0
  -24.3390  -33.5861   36.8507 C   0  0  0  0  0  0  0  0  0  0  0  0
  -23.8440  -34.4525   41.6366 O   0  0  0  0  0  0  0  0  0  0  0  0
  -21.8024  -33.3634   37.7725 N   0  0  0  0  0  0  0  0  0  0  0  0
  -24.8285  -35.0010   42.9679 P   0  0  0  0  0  0  0  0  0  0  0  0
  -23.4647  -34.1507   40.3988 C   0  0  0  0  0  0  0  0  0  0  0  0
  -22.3800  -33.1628   35.3024 C   0  0  0  0  0  0  0  0  0  0  0  0
  -25.0432  -33.5373   35.9013 O   0  0  0  0  0  0  0  0  0  0  0  0
  -26.0953  -34.7685   42.7504 O   0  0  0  0  0  0  0  0  0  0  0  0
  -22.2099  -33.6378   38.7179 C   0  0  0  0  0  0  0  0  0  0  0  0
  -24.0331  -34.5087   43.9288 O   0  0  0  0  0  0  0  0  0  0  0  0
  -24.6559  -36.5316   42.8715 O   0  0  0  0  0  0  0  0  0  0  0  0
  -25.9563  -33.8018   38.6262 C   0  0  0  0  0  0  0  0  0  0  0  0
  -23.5300  -33.9085   39.2194 C   0  0  0  0  0  0  0  0  0  0  0  0
  -22.7001  -33.3308   36.7271 C   0  0  0  0  0  0  0  0  0  0  0  0
  2  1  2  0
  6  3  1  0
  8  2  1  0
  9  5  1  0
  9  6  1  0
 10  4  1  0
 11  5  1  0
 12  5  1  0
 13  1  1  0
 14  1  1  0
 14  6  1  0
 14 10  2  0
 15  2  1  0
 15  4  2  0
 15  7  1  0
M  END
>  <ID>  (1) 
conformer_0

$$$$
