
     RDKit          3D

 15 15  0  0  0  0  0  0  0  0999 V2000
  -24.4344  -33.6539   37.2777 C   0  0  0  0  0  0  0  0  0  0  0  0
  -23.3481  -33.6692   39.4647 C   0  0  0  0  0  0  0  0  0  0  0  0
  -24.6401  -34.9056   42.8505 P   0  0  0  0  0  0  0  0  0  0  0  0
  -22.5710  -33.2807   35.2167 C   0  0  0  0  0  0  0  0  0  0  0  0
  -25.4117  -33.4614   36.3659 O   0  0  0  0  0  0  0  0  0  0  0  0
  -23.6902  -33.8593   40.7541 C   0  0  0  0  0  0  0  0  0  0  0  0
  -22.1599  -33.5278   37.6168 N   0  0  0  0  0  0  0  0  0  0  0  0
  -24.5586  -35.9235   41.6345 O   0  0  0  0  0  0  0  0  0  0  0  0
  -24.0118  -35.2677   43.7774 O   0  0  0  0  0  0  0  0  0  0  0  0
  -25.7550  -33.8963   39.4690 C   0  0  0  0  0  0  0  0  0  0  0  0
  -22.9551  -33.3879   36.7276 C   0  0  0  0  0  0  0  0  0  0  0  0
  -26.0376  -34.2410   42.6685 O   0  0  0  0  0  0  0  0  0  0  0  0
  -23.7785  -33.9103   42.0038 O   0  0  0  0  0  0  0  0  0  0  0  0
  -24.6582  -33.7118   38.7265 C   0  0  0  0  0  0  0  0  0  0  0  0
  -22.3100  -33.5536   38.6376 C   0  0  0  0  0  0  0  0  0  0  0  0
  5  1  1  0
  6  2  1  0
  8  6  2  0
  9  3  1  0
 11  1  2  0
 11  4  1  0
 11  7  1  0
 12  3  1  0
 13  3  1  0
 13  6  1  0
 14  1  1  0
 14  2  2  0
 14 10  1  0
 15  2  1  0
 15  7  2  0
M  END
>  <ID>  (1) 
conformer_0

$$$$
