
     RDKit          3D

 14 13  0  0  0  0  0  0  0  0999 V2000
  -23.4788  -33.6540   39.3619 C   0  0  0  0  0  0  0  0  0  0  0  0
  -23.9996  -33.6340   36.8527 C   0  0  2  0  0  0  0  0  0  0  0  0
  -23.4259  -33.7320   40.7392 C   0  0  1  0  0  0  0  0  0  0  0  0
  -25.9767  -34.3740   42.5319 O   0  0  0  0  0  0  0  0  0  0  0  0
  -24.8051  -35.1231   42.9601 P   0  0  0  0  0  0  0  0  0  0  0  0
  -25.6178  -33.3901   36.3270 O   0  0  0  0  0  0  0  0  0  0  0  0
  -22.5465  -33.5539   38.1272 C   0  0  0  0  0  0  0  0  0  0  0  0
  -23.9109  -34.8473   44.1246 O   0  0  0  0  0  0  0  0  0  0  0  0
  -22.2774  -33.5680   37.3438 N   0  0  0  0  0  0  0  0  0  0  0  0
  -23.2912  -33.5808   35.1432 C   0  0  0  0  0  0  0  0  0  0  0  0
  -26.1175  -33.6013   39.2481 C   0  0  0  0  0  0  0  0  0  0  0  0
  -23.7679  -34.6786   41.8134 O   0  0  0  0  0  0  0  0  0  0  0  0
  -24.6078  -33.6951   38.7549 C   0  0  0  0  0  0  0  0  0  0  0  0
  -25.0353  -36.4612   43.2090 O   0  0  0  0  0  0  0  0  0  0  0  0
  3  1  1  0
  4  3  1  0
  5  4  1  0
  6  2  1  0
  7  1  1  0
  8  5  1  0
  9  2  1  0
  9  7  1  0
  2 10  1  6
  3 12  1  6
 13  1  2  3
 13 11  1  0
 14  5  1  0
M  END
>  <ID>  (1) 
conformer_0

$$$$
