
     RDKit          3D

 14 14  0  0  0  0  0  0  0  0999 V2000
  -23.2687  -33.8671   39.4772 C   0  0  0  0  0  0  0  0  0  0  0  0
  -24.2985  -33.8343   37.0829 C   0  0  0  0  0  0  0  0  0  0  0  0
  -26.1770  -33.6671   39.4741 C   0  0  0  0  0  0  0  0  0  0  0  0
  -24.5962  -34.7217   42.8629 P   0  0  0  0  0  4  0  0  0  0  0  0
  -23.7738  -33.9988   41.9329 O   0  0  0  0  0  0  0  0  0  0  0  0
  -21.8933  -33.5077   37.6091 N   0  0  0  0  0  0  0  0  0  0  0  0
  -22.5011  -33.4202   35.3636 C   0  0  0  0  0  0  0  0  0  0  0  0
  -23.8432  -34.3034   40.6131 C   0  0  0  0  0  0  0  0  0  0  0  0
  -22.9123  -33.5003   36.7807 C   0  0  0  0  0  0  0  0  0  0  0  0
  -24.1100  -35.4095   43.5907 O   0  0  0  0  0  0  0  0  0  0  0  0
  -24.9655  -33.7933   36.2157 O   0  0  0  0  0  0  0  0  0  0  0  0
  -25.8108  -34.2451   42.5784 O   0  0  0  0  0  1  0  0  0  0  0  0
  -24.4119  -33.8769   38.7805 C   0  0  0  0  0  0  0  0  0  0  0  0
  -22.0668  -33.6344   38.6950 C   0  0  0  0  0  0  0  0  0  0  0  0
  5  4  1  0
  8  1  1  0
  8  5  1  0
  9  2  2  0
  9  6  1  0
  9  7  1  0
 10  4  1  0
 11  2  1  0
 12  4  1  0
 13  1  2  0
 13  2  1  0
 13  3  1  0
 14  1  1  0
 14  6  2  0
M  RAD  2   4   2  12   2
M  END
>  <ID>  (1) 
conformer_0

$$$$
