
     RDKit          3D

 15 16  0  0  0  0  0  0  0  0999 V2000
  -23.2467  -33.5954   39.3241 C   0  0  0  0  0  0  0  0  0  0  0  0
  -24.4744  -33.9070   37.2334 C   0  0  0  0  0  0  0  0  0  0  0  0
  -22.3760  -33.8167   37.3290 N   0  0  0  0  0  0  0  0  0  0  0  0
  -25.9200  -34.3830   42.8066 O   0  0  0  0  0  0  0  0  0  0  0  0
  -23.0541  -33.3636   35.3313 C   0  0  0  0  0  0  0  0  0  0  0  0
  -24.6680  -34.9885   42.7826 P   0  0  0  0  0  0  0  0  0  0  0  0
  -24.1197  -33.7586   40.9782 C   0  0  0  0  0  0  0  0  0  0  0  0
  -25.4456  -33.5624   36.4570 O   0  0  0  0  0  0  0  0  0  0  0  0
  -22.0681  -33.5893   38.6940 C   0  0  0  0  0  0  0  0  0  0  0  0
  -25.3820  -33.5693   39.8827 C   0  0  0  0  0  0  0  0  0  0  0  0
  -23.8687  -35.0305   43.9491 O   0  0  0  0  0  0  0  0  0  0  0  0
  -23.8576  -34.2853   41.9124 O   0  0  0  0  0  0  0  0  0  0  0  0
  -24.8371  -36.2991   42.4327 O   0  0  0  0  0  0  0  0  0  0  0  0
  -24.5253  -33.8377   38.7400 C   0  0  0  0  0  0  0  0  0  0  0  0
  -22.9766  -33.5809   36.6739 C   0  0  0  0  0  0  0  0  0  0  0  0
  7  1  1  0
  7  4  1  0
  8  2  1  0
  9  1  2  0
  9  3  1  0
 10  7  1  0
 11  6  1  0
 12  6  1  0
 12  7  1  0
 13  6  1  0
 14  1  1  0
 14  2  2  0
 14 10  1  0
 15  2  1  0
 15  3  2  0
 15  5  1  0
M  END
>  <ID>  (1) 
conformer_0

$$$$
