
     RDKit          3D

 15 16  0  0  0  0  0  0  0  0999 V2000
  -24.4723  -33.7828   38.6453 C   0  0  0  0  0  0  0  0  0  0  0  0
  -24.0608  -33.7047   37.2046 C   0  0  0  0  0  0  0  0  0  0  0  0
  -21.7860  -33.5328   38.0298 N   0  0  0  0  0  0  0  0  0  0  0  0
  -23.7880  -34.5065   41.7104 O   0  0  0  0  0  0  0  0  0  0  0  0
  -25.0530  -33.6261   36.5405 O   0  0  0  0  0  0  0  0  0  0  0  0
  -24.8573  -34.8923   42.7292 P   0  0  0  0  0  0  0  0  0  0  0  0
  -22.1182  -33.7572   39.2605 C   0  0  0  0  0  0  0  0  0  0  0  0
  -22.7254  -33.6410   35.4190 C   0  0  0  0  0  0  0  0  0  0  0  0
  -24.4600  -34.0201   40.5785 C   0  0  0  0  0  0  0  0  0  0  0  0
  -24.2006  -34.5724   43.8648 O   0  0  0  0  0  0  0  0  0  0  0  0
  -26.0081  -34.2396   42.0926 O   0  0  0  0  0  0  0  0  0  0  0  0
  -23.5682  -33.8620   39.6219 C   0  0  0  0  0  0  0  0  0  0  0  0
  -25.9689  -33.7347   39.5215 C   0  0  0  0  0  0  0  0  0  0  0  0
  -25.0380  -36.1898   42.8176 O   0  0  0  0  0  0  0  0  0  0  0  0
  -22.5967  -33.4967   37.2364 C   0  0  0  0  0  0  0  0  0  0  0  0
  2  1  2  0
  5  2  1  0
  7  3  1  0
  9  4  1  0
 10  6  1  0
 11  6  1  0
 11  9  1  0
 12  1  1  0
 12  7  2  0
 12  9  1  0
 13  1  1  0
 13  9  1  0
 14  6  1  0
 15  2  1  0
 15  3  2  0
 15  8  1  0
M  END
>  <ID>  (1) 
conformer_0

$$$$
