
     RDKit          3D

 15 15  0  0  0  0  0  0  0  0999 V2000
  -23.2660  -33.6694   39.7424 C   0  0  0  0  0  0  0  0  0  0  0  0
  -24.2334  -33.6919   37.4321 C   0  0  0  0  0  0  0  0  0  0  0  0
  -24.3798  -33.8098   40.9081 C   0  0  0  0  0  0  0  0  0  0  0  0
  -22.4706  -33.5901   35.2702 C   0  0  0  0  0  0  0  0  0  0  0  0
  -22.0506  -33.5599   37.6488 N   0  0  0  0  0  0  0  0  0  0  0  0
  -22.0117  -33.6403   38.8749 C   0  0  0  0  0  0  0  0  0  0  0  0
  -26.1119  -34.1855   42.3268 O   0  0  0  0  0  0  0  0  0  0  0  0
  -25.2115  -33.6161   36.4823 O   0  0  0  0  0  0  0  0  0  0  0  0
  -25.1263  -34.9400   43.0668 P   0  0  0  0  0  0  0  0  0  0  0  0
  -24.2139  -34.4200   43.9849 O   0  0  0  0  0  0  0  0  0  0  0  0
  -24.3364  -33.7647   39.0102 C   0  0  0  0  0  0  0  0  0  0  0  0
  -25.5256  -35.9683   43.1580 O   0  0  0  0  0  0  0  0  0  0  0  0
  -25.8701  -33.9927   39.7333 C   0  0  0  0  0  0  0  0  0  0  0  0
  -24.1862  -34.7022   41.8764 O   0  0  0  0  0  0  0  0  0  0  0  0
  -22.7509  -33.5349   36.8741 C   0  0  0  0  0  0  0  0  0  0  0  0
  3  1  1  0
  6  1  2  0
  6  5  1  0
  7  3  1  0
  8  2  1  0
  9  7  1  0
 10  9  1  0
 11  1  1  0
 11  2  2  0
 12  9  1  0
 13 11  1  0
 14  3  2  0
 15  2  1  0
 15  4  1  0
 15  5  2  0
M  END
>  <ID>  (1) 
conformer_0

$$$$
