
     RDKit          3D

 16 16  0  0  0  0  0  0  0  0999 V2000
  -24.5764  -33.7612   38.5518 C   0  0  0  0  0  0  0  0  0  0  0  0
  -24.3056  -33.5956   36.9887 C   0  0  0  0  0  0  0  0  0  0  0  0
  -24.8168  -34.8302   43.1069 P   0  0  0  0  0  0  0  0  0  0  0  0
  -23.7753  -34.0863   41.9282 O   0  0  0  0  0  0  0  0  0  0  0  0
  -25.6103  -33.3375   36.3944 O   0  0  0  0  0  0  0  0  0  0  0  0
  -24.2222  -34.0696   40.3959 C   0  0  0  0  0  0  0  0  0  0  0  0
  -22.6481  -33.1090   35.4130 C   0  0  0  0  0  0  0  0  0  0  0  0
  -22.7216  -33.3864   37.0785 C   0  0  0  0  0  0  0  0  0  0  0  0
  -26.0291  -34.4136   42.5735 O   0  0  0  0  0  0  0  0  0  0  0  0
  -24.3950  -34.7362   44.2690 O   0  0  0  0  0  0  0  0  0  0  0  0
  -21.2098  -33.5491   38.7320 O   0  0  0  0  0  0  0  0  0  0  0  0
  -23.5289  -33.8346   39.4452 C   0  0  0  0  0  0  0  0  0  0  0  0
  -21.8401  -33.4336   38.0618 N   0  0  0  0  0  0  0  0  0  0  0  0
  -25.8326  -33.6874   39.4191 C   0  0  0  0  0  0  0  0  0  0  0  0
  -22.1439  -33.6537   38.9621 C   0  0  0  0  0  0  0  0  0  0  0  0
  -24.4929  -36.2122   42.9940 O   0  0  0  0  0  0  0  0  0  0  0  0
  2  1  1  0
  5  2  1  0
  6  4  2  0
  8  2  1  0
  8  7  1  0
  9  3  1  0
  9  6  1  0
 10  3  1  0
 12  1  2  0
 12  6  1  0
 13  8  1  0
 14  1  1  0
 15 11  1  0
 15 12  1  0
 15 13  2  0
 16  3  1  0
M  END
>  <ID>  (1) 
conformer_0

$$$$
