
     RDKit          3D

 15 15  0  0  0  0  0  0  0  0999 V2000
  -24.5871  -33.7563   38.4450 C   0  0  0  0  0  0  0  0  0  0  0  0
  -22.8541  -33.4123   36.7945 C   0  0  0  0  0  0  0  0  0  0  0  0
  -22.7378  -33.3925   35.2785 C   0  0  0  0  0  0  0  0  0  0  0  0
  -25.0705  -33.4982   36.0395 O   0  0  0  0  0  0  0  0  0  0  0  0
  -22.2891  -33.5794   38.8081 C   0  0  0  0  0  0  0  0  0  0  0  0
  -23.9174  -34.8403   41.7700 O   0  0  0  0  0  0  0  0  0  0  0  0
  -24.9426  -35.2370   43.1110 P   0  0  0  0  0  0  0  0  0  0  0  0
  -22.1135  -33.5925   37.5417 N   0  0  0  0  0  0  0  0  0  0  0  0
  -23.6082  -34.1682   40.7266 C   0  0  0  0  0  0  0  0  0  0  0  0
  -24.0827  -34.6196   44.0153 O   0  0  0  0  0  0  0  0  0  0  0  0
  -25.6114  -33.9562   39.5730 C   0  0  0  0  0  0  0  0  0  0  0  0
  -26.0968  -34.7916   42.6107 O   0  0  0  0  0  0  0  0  0  0  0  0
  -23.6503  -33.7753   39.3184 C   0  0  0  0  0  0  0  0  0  0  0  0
  -25.0189  -36.5113   43.4596 O   0  0  0  0  0  0  0  0  0  0  0  0
  -24.4083  -33.5967   36.9900 C   0  0  0  0  0  0  0  0  0  0  0  0
  3  2  1  0
  8  2  1  0
  8  5  2  0
  9  6  1  0
 10  7  1  0
 11  1  1  0
 12  7  1  0
 12  9  1  0
 13  1  2  0
 13  5  1  0
 13  9  1  0
 14  7  1  0
 15  1  1  0
 15  2  2  0
 15  4  1  0
M  END
>  <ID>  (1) 
conformer_0

$$$$
