
     RDKit          3D

 16 16  0  0  0  0  0  0  0  0999 V2000
  -23.0754  -33.8291   39.5311 C   0  0  0  0  0  0  0  0  0  0  0  0
  -24.2026  -33.7512   37.3607 C   0  0  0  0  0  0  0  0  0  0  0  0
  -23.6965  -34.1334   41.8270 O   0  0  0  0  0  0  0  0  0  0  0  0
  -21.6079  -33.5177   37.6403 N   0  0  0  0  0  0  0  0  0  0  0  0
  -24.6961  -34.9165   42.9656 P   0  0  0  0  0  0  0  0  0  0  0  0
  -22.7934  -33.6089   35.1047 C   0  0  0  0  0  0  0  0  0  0  0  0
  -25.8711  -33.7308   39.4362 C   0  0  0  0  0  0  0  0  0  0  0  0
  -21.9838  -33.6917   38.8177 C   0  0  0  0  0  0  0  0  0  0  0  0
  -23.7196  -34.0415   40.5429 C   0  0  0  0  0  0  0  0  0  0  0  0
  -25.9533  -34.4050   42.5587 O   0  0  0  0  0  0  0  0  0  0  0  0
  -25.6453  -33.5196   36.5021 O   0  0  0  0  0  0  0  0  0  0  0  0
  -24.1441  -34.8342   44.1672 O   0  0  0  0  0  0  0  0  0  0  0  0
  -24.3355  -33.8377   38.8910 C   0  0  0  0  0  0  0  0  0  0  0  0
  -24.7859  -36.2319   42.6389 O   0  0  0  0  0  0  0  0  0  0  0  0
  -22.8095  -33.5268   36.6071 C   0  0  0  0  0  0  0  0  0  0  0  0
  -23.6024  -33.7118   37.0074 N   0  0  0  0  0  0  0  0  0  0  0  0
  8  1  2  0
  8  4  1  0
  9  1  1  0
  9  3  2  0
 10  5  1  0
 10  9  1  0
 11  2  1  0
 12  5  1  0
 13  1  1  0
 13  2  1  0
 13  7  1  0
 14  5  1  0
 15  4  2  0
 15  6  1  0
 16  2  2  0
 16 15  1  0
M  END
>  <ID>  (1) 
conformer_0

$$$$
