
     RDKit          3D

 15 15  0  0  0  0  0  0  0  0999 V2000
  -24.3819  -33.7913   37.2138 C   0  0  0  0  0  0  0  0  0  0  0  0
  -23.2906  -33.9615   39.6135 C   0  0  0  0  0  0  0  0  0  0  0  0
  -22.0560  -33.5953   37.7793 N   0  0  0  0  0  0  0  0  0  0  0  0
  -24.7226  -34.7635   43.0334 P   0  0  0  0  0  0  0  0  0  0  0  0
  -22.6691  -33.3754   35.4190 C   0  0  0  0  0  0  0  0  0  0  0  0
  -23.6644  -34.2868   42.2421 O   0  0  0  0  0  0  0  0  0  0  0  0
  -25.3391  -33.6660   36.3824 O   0  0  0  0  0  0  0  0  0  0  0  0
  -23.9081  -34.1246   40.7415 C   0  0  0  0  0  0  0  0  0  0  0  0
  -22.2183  -33.7207   38.8645 C   0  0  0  0  0  0  0  0  0  0  0  0
  -25.7196  -33.6938   39.4685 C   0  0  0  0  0  0  0  0  0  0  0  0
  -25.9791  -34.2703   42.3324 O   0  0  0  0  0  0  0  0  0  0  0  0
  -24.7724  -34.3861   44.1982 O   0  0  0  0  0  0  0  0  0  0  0  0
  -24.8963  -36.0694   42.9797 O   0  0  0  0  0  0  0  0  0  0  0  0
  -22.7930  -33.5588   36.9086 C   0  0  0  0  0  0  0  0  0  0  0  0
  -24.4744  -33.8614   38.6578 C   0  0  0  0  0  0  0  0  0  0  0  0
  6  4  1  0
  7  1  1  0
  8  2  1  0
  8  6  1  0
  9  2  1  0
  9  3  2  0
 11  8  2  0
 12  4  1  0
 13  4  1  0
 14  1  2  0
 14  3  1  0
 14  5  1  0
 15  1  1  0
 15  2  2  0
 15 10  1  0
M  END
>  <ID>  (1) 
conformer_0

$$$$
