
     RDKit          3D

 11 10  0  0  0  0  0  0  0  0999 V2000
  -24.0239  -33.7657   38.9226 C   0  0  0  0  0  0  0  0  0  0  0  0
  -23.7315  -33.6352   36.7714 C   0  0  2  0  0  0  0  0  0  0  0  0
  -23.6543  -33.6305   40.8182 C   0  0  0  0  0  0  0  0  0  0  0  0
  -22.1960  -33.3943   37.4474 N   0  0  0  0  0  0  0  0  0  0  0  0
  -25.0322  -34.8855   43.0875 P   0  0  0  0  0  4  0  0  0  0  0  0
  -26.0769  -34.5824   42.5621 O   0  0  0  0  0  1  0  0  0  0  0  0
  -24.9329  -33.8903   35.9847 O   0  0  0  0  0  0  0  0  0  0  0  0
  -22.3221  -33.5106   35.1366 C   0  0  0  0  0  0  0  0  0  0  0  0
  -22.4752  -33.5019   38.0644 C   0  0  0  0  0  0  0  0  0  0  0  0
  -24.4578  -35.1898   43.8369 O   0  0  0  0  0  0  0  0  0  0  0  0
  -23.8686  -34.5399   41.7572 O   0  0  0  0  0  0  0  0  0  0  0  0
  3  1  1  0
  4  2  1  0
  6  5  1  0
  7  2  1  0
  2  8  1  6
  9  1  1  0
  9  4  2  3
 10  5  1  0
 11  3  1  0
 11  5  1  0
M  RAD  2   5   2   6   2
M  END
>  <ID>  (1) 
conformer_0

$$$$
