
     RDKit          3D

 17 18  0  0  0  0  0  0  0  0999 V2000
  -24.4230  -33.8040   38.7210 C   0  0  0  0  0  0  0  0  0  0  0  0
  -22.1131  -33.5617   38.6015 C   0  0  0  0  0  0  0  0  0  0  0  0
  -24.4593  -34.1888   40.6492 C   0  0  0  0  0  0  0  0  0  0  0  0
  -24.0075  -34.8620   41.9280 O   0  0  0  0  0  0  0  0  0  0  0  0
  -25.9379  -33.7066   39.4191 C   0  0  0  0  0  0  0  0  0  0  0  0
  -25.0183  -35.1065   43.0751 P   0  0  0  0  0  0  0  0  0  0  0  0
  -22.5373  -33.5021   35.2982 C   0  0  0  0  0  0  0  0  0  0  0  0
  -25.0524  -33.6949   36.2357 O   0  0  0  0  0  0  0  0  0  0  0  0
  -24.4150  -33.7851   37.1427 C   0  0  0  0  0  0  0  0  0  0  0  0
  -25.1091  -36.3890   43.4734 O   0  0  0  0  0  0  0  0  0  0  0  0
  -21.8912  -33.4990   37.5994 N   0  0  0  0  0  0  0  0  0  0  0  0
  -26.1671  -34.5504   42.4663 O   0  0  0  0  0  0  0  0  0  0  0  0
  -21.1544  -33.3254   39.1817 O   0  0  0  0  0  0  0  0  0  0  0  0
  -23.2719  -33.6927   39.3565 C   0  0  0  0  0  0  0  0  0  0  0  0
  -24.4654  -34.4646   44.1403 O   0  0  0  0  0  0  0  0  0  0  0  0
  -22.8922  -33.4914   36.8010 C   0  0  0  0  0  0  0  0  0  0  0  0
  -22.8818  -33.4078   40.9972 C   0  0  0  0  0  0  0  0  0  0  0  0
  4  3  1  0
  5  1  1  0
  9  1  1  0
  9  8  1  0
 10  6  1  0
 11  2  2  0
 12  3  1  0
 12  6  1  0
 13  2  1  0
 14  1  1  0
 14  2  1  0
 14  3  1  0
 15  6  1  0
 16  7  1  0
 16  9  2  0
 16 11  1  0
 17  3  1  0
 17 14  1  0
M  END
>  <ID>  (1) 
conformer_0

$$$$
