
     RDKit          3D

 15 15  0  0  0  0  0  0  0  0999 V2000
  -24.3993  -33.6518   38.8266 C   0  0  0  0  0  0  0  0  0  0  0  0
  -24.2357  -33.5836   37.2259 C   0  0  0  0  0  0  0  0  0  0  0  0
  -25.3413  -33.4373   36.3931 O   0  0  0  0  0  0  0  0  0  0  0  0
  -24.8340  -35.2067   42.9059 P   0  0  0  0  0  0  0  0  0  0  0  0
  -21.7677  -33.4391   37.9104 N   0  0  0  0  0  0  0  0  0  0  0  0
  -24.1065  -34.7682   41.6560 O   0  0  0  0  0  0  0  0  0  0  0  0
  -22.7446  -33.4702   37.1999 C   0  0  0  0  0  0  0  0  0  0  0  0
  -23.8416  -34.8702   43.8059 O   0  0  0  0  0  0  0  0  0  0  0  0
  -22.6460  -33.3924   35.4902 C   0  0  0  0  0  0  0  0  0  0  0  0
  -25.9736  -33.5885   39.2885 C   0  0  0  0  0  0  0  0  0  0  0  0
  -24.0335  -34.0519   40.8567 C   0  0  0  0  0  0  0  0  0  0  0  0
  -25.2241  -36.7039   42.8183 O   0  0  0  0  0  0  0  0  0  0  0  0
  -23.2757  -33.6786   39.6919 C   0  0  0  0  0  0  0  0  0  0  0  0
  -26.0362  -34.6993   42.8153 O   0  0  0  0  0  0  0  0  0  0  0  0
  -21.9910  -33.6249   39.1212 C   0  0  0  0  0  0  0  0  0  0  0  0
  2  1  2  0
  3  2  1  0
  7  2  1  0
  7  5  2  0
  8  4  1  0
  9  7  1  0
 10  1  1  0
 11  6  2  0
 12  4  1  0
 13  1  1  0
 13 11  1  0
 14  4  1  0
 14 11  1  0
 15  5  1  0
 15 13  2  0
M  END
>  <ID>  (1) 
conformer_0

$$$$
