
     RDKit          3D

 15 15  0  0  0  0  0  0  0  0999 V2000
  -24.5666  -33.8068   38.8468 C   0  0  0  0  0  0  0  0  0  0  0  0
  -24.3303  -33.6936   37.3039 C   0  0  0  0  0  0  0  0  0  0  0  0
  -26.2102  -33.6280   39.1233 C   0  0  0  0  0  0  0  0  0  0  0  0
  -22.5907  -33.4767   35.4159 C   0  0  0  0  0  0  0  0  0  0  0  0
  -22.1453  -33.5449   37.7582 N   0  0  0  0  0  0  0  0  0  0  0  0
  -23.7166  -34.4427   41.5731 O   0  0  0  0  0  0  0  0  0  0  0  0
  -24.5538  -34.9272   42.7237 P   0  0  0  0  0  0  0  0  0  0  0  0
  -25.3228  -33.5004   36.3666 O   0  0  0  0  0  0  0  0  0  0  0  0
  -22.1853  -33.6987   38.9314 C   0  0  0  0  0  0  0  0  0  0  0  0
  -23.8679  -34.0372   40.6811 C   0  0  0  0  0  0  0  0  0  0  0  0
  -23.9027  -34.7023   43.8102 O   0  0  0  0  0  0  0  0  0  0  0  0
  -24.7849  -36.3215   42.1297 O   0  0  0  0  0  0  0  0  0  0  0  0
  -25.7670  -34.4251   42.3712 O   0  0  0  0  0  0  0  0  0  0  0  0
  -23.4193  -33.8271   39.6201 C   0  0  0  0  0  0  0  0  0  0  0  0
  -22.7586  -33.4687   36.8845 C   0  0  0  0  0  0  0  0  0  0  0  0
  2  1  2  0
  3  1  1  0
  8  2  1  0
  9  5  1  0
 10  6  2  0
 11  7  1  0
 12  7  1  0
 13  7  1  0
 13 10  1  0
 14  1  1  0
 14  9  2  0
 14 10  1  0
 15  2  1  0
 15  4  1  0
 15  5  2  0
M  END
>  <ID>  (1) 
conformer_0

$$$$
