
     RDKit          3D

 14 14  0  0  0  0  0  0  0  0999 V2000
  -24.4136  -33.8167   38.7338 C   0  0  0  0  0  0  0  0  0  0  0  0
  -23.8630  -33.5331   36.9202 C   0  0  0  0  0  0  0  0  0  0  0  0
  -22.5523  -33.3496   35.2726 C   0  0  0  0  0  0  0  0  0  0  0  0
  -23.4387  -34.0566   40.5817 C   0  0  0  0  0  0  0  0  0  0  0  0
  -24.8828  -35.0751   43.0037 P   0  0  0  0  0  0  0  0  0  0  0  0
  -23.9537  -34.9120   41.7310 O   0  0  0  0  0  0  0  0  0  0  0  0
  -22.0901  -33.5906   37.4646 N   0  0  0  0  0  0  0  0  0  0  0  0
  -25.2465  -33.4328   36.3670 O   0  0  0  0  0  0  0  0  0  0  0  0
  -24.2568  -34.2626   43.9122 O   0  0  0  0  0  0  0  0  0  0  0  0
  -26.0712  -34.8484   42.4559 O   0  0  0  0  0  0  0  0  0  0  0  0
  -22.3856  -33.5488   37.8850 C   0  0  0  0  0  0  0  0  0  0  0  0
  -24.7543  -36.4024   43.5858 O   0  0  0  0  0  0  0  0  0  0  0  0
  -26.1536  -33.7024   38.7832 C   0  0  0  0  0  0  0  0  0  0  0  0
  -23.0850  -33.8623   39.3184 C   0  0  0  0  0  0  0  0  0  0  0  0
  2  1  1  0
  6  4  1  0
  8  2  1  0
  9  5  1  0
 10  4  1  0
 10  5  1  0
 11  2  1  0
 11  3  1  0
 11  7  1  0
 12  5  1  0
 13  1  1  0
 14  1  2  0
 14  4  1  0
 14 11  1  0
M  END
>  <ID>  (1) 
conformer_0

$$$$
