
     RDKit          3D

 14 13  0  0  0  0  0  0  0  0999 V2000
  -23.2796  -33.7321   39.7273 C   0  0  0  0  0  0  0  0  0  0  0  0
  -23.6078  -33.6167   37.1079 C   0  0  0  0  0  0  0  0  0  0  0  0
  -26.2287  -33.3322   39.2886 C   0  0  0  0  0  0  0  0  0  0  0  0
  -23.6143  -33.9830   40.8351 C   0  0  0  0  0  0  0  0  0  0  0  0
  -22.6573  -33.6417   35.5427 C   0  0  0  0  0  0  0  0  0  0  0  0
  -23.9406  -34.5451   41.8129 O   0  0  0  0  0  0  0  0  0  0  0  0
  -24.9880  -35.2250   42.8742 P   0  0  0  0  0  0  0  0  0  0  0  0
  -22.2535  -33.6784   38.4403 C   0  0  0  0  0  0  0  0  0  0  0  0
  -25.0321  -36.5185   42.4256 O   0  0  0  0  0  0  0  0  0  0  0  0
  -25.1479  -33.5174   36.4437 O   0  0  0  0  0  0  0  0  0  0  0  0
  -26.1160  -34.5478   42.5847 O   0  0  0  0  0  0  0  0  0  0  0  0
  -22.2890  -33.7413   37.7784 N   0  0  0  0  0  0  0  0  0  0  0  0
  -24.2549  -35.1385   44.0074 O   0  0  0  0  0  0  0  0  0  0  0  0
  -24.5084  -33.7205   38.9760 C   0  0  0  0  0  0  0  0  0  0  0  0
  4  1  1  0
  5  2  1  0
  6  4  1  0
  8  1  1  0
  9  7  1  0
 10  2  1  0
 11  4  1  0
 11  7  1  0
 12  2  1  0
 12  8  1  0
 13  7  1  0
 14  1  1  0
 14  3  1  0
M  END
>  <ID>  (1) 
conformer_0

$$$$
