
     RDKit          3D

 15 15  0  0  0  0  0  0  0  0999 V2000
  -24.4371  -33.7958   38.4279 C   0  0  0  0  0  0  0  0  0  0  0  0
  -23.7010  -33.6929   36.7548 C   0  0  0  0  0  0  0  0  0  0  0  0
  -22.6308  -33.6368   35.2188 C   0  0  0  0  0  0  0  0  0  0  0  0
  -24.1386  -33.5142   40.8429 C   0  0  0  0  0  0  0  0  0  0  0  0
  -23.7197  -34.7608   41.6580 O   0  0  0  0  0  0  0  0  0  0  0  0
  -24.8291  -35.0741   43.0081 P   0  0  0  0  0  0  0  0  0  0  0  0
  -23.7710  -34.9183   44.1043 O   0  0  0  0  0  0  0  0  0  0  0  0
  -24.9251  -33.6421   36.1330 O   0  0  0  0  0  0  0  0  0  0  0  0
  -21.9874  -33.6699   37.4409 N   0  0  0  0  0  0  0  0  0  0  0  0
  -22.2748  -33.6142   38.1839 C   0  0  0  0  0  0  0  0  0  0  0  0
  -23.4469  -33.5975   39.2977 C   0  0  0  0  0  0  0  0  0  0  0  0
  -21.1991  -33.5691   39.3255 O   0  0  0  0  0  0  0  0  0  0  0  0
  -25.7330  -33.6911   39.6097 C   0  0  0  0  0  0  0  0  0  0  0  0
  -25.4514  -35.8994   43.1522 O   0  0  0  0  0  0  0  0  0  0  0  0
  -25.3088  -34.0508   42.5266 O   0  0  0  0  0  0  0  0  0  0  0  0
  2  1  1  0
  3  2  1  0
  5  4  1  0
  7  6  1  0
  8  2  1  0
  9  2  1  0
 10  9  2  0
 11  1  2  0
 11  4  1  0
 11 10  1  0
 12 10  1  0
 13  1  1  0
 14  6  1  0
 15  4  1  0
 15  6  1  0
M  END
>  <ID>  (1) 
conformer_0

$$$$
