
     RDKit          3D

 15 15  0  0  0  0  0  0  0  0999 V2000
  -24.4963  -33.6707   37.3247 C   0  0  0  0  0  0  0  0  0  0  0  0
  -24.6309  -33.9890   38.7295 C   0  0  0  0  0  0  0  0  0  0  0  0
  -24.7544  -34.5159   42.9798 P   0  0  0  0  0  4  0  0  0  0  0  0
  -22.7631  -33.6470   35.2752 C   0  0  0  0  0  0  0  0  0  0  0  0
  -23.8265  -34.0197   41.9125 O   0  0  0  0  0  0  0  0  0  0  0  0
  -25.3511  -33.3205   36.4932 O   0  0  0  0  0  0  0  0  0  0  0  0
  -23.9042  -33.8637   40.7162 C   0  0  0  0  0  0  0  0  0  0  0  0
  -22.9940  -33.5468   36.8217 C   0  0  0  0  0  0  0  0  0  0  0  0
  -24.1968  -34.8256   43.8125 O   0  0  0  0  0  0  0  0  0  0  0  0
  -25.9701  -34.6004   42.4972 O   0  0  0  0  0  1  0  0  0  0  0  0
  -21.4832  -33.6509   38.4933 O   0  0  0  0  0  0  0  0  0  0  0  0
  -25.5951  -33.9540   39.5923 C   0  0  0  0  0  0  0  0  0  0  0  0
  -22.3203  -33.7835   38.5706 C   0  0  0  0  0  0  0  0  0  0  0  0
  -22.4521  -33.5502   37.3800 N   0  0  0  0  0  0  0  0  0  0  0  0
  -23.2025  -33.8383   39.4956 C   0  0  0  0  0  0  0  0  0  0  0  0
  2  1  1  0
  5  3  1  0
  6  1  1  0
  7  5  1  0
  8  1  1  0
  8  4  1  0
  9  3  1  0
 10  3  1  0
 12  2  1  0
 13 11  1  0
 14  8  1  0
 14 13  2  0
 15  2  2  0
 15  7  1  0
 15 13  1  0
M  RAD  2   3   2  10   2
M  END
>  <ID>  (1) 
conformer_0

$$$$
