
     RDKit          3D

 14 16  0  0  0  0  0  0  0  0999 V2000
  -22.9140  -33.7633   39.6717 C   0  0  0  0  0  0  0  0  0  0  0  0
  -24.1604  -33.8668   37.6699 C   0  0  0  0  0  3  0  0  0  0  0  0
  -22.7985  -33.6474   35.4551 C   0  0  0  0  0  0  0  0  0  0  0  0
  -21.8867  -33.7061   37.6479 N   0  0  0  0  0  0  0  0  0  0  0  0
  -26.1126  -34.5285   42.5860 O   0  0  0  0  0  1  0  0  0  0  0  0
  -24.2836  -33.8974   40.6974 C   0  0  0  0  0  0  0  0  0  0  0  0
  -21.8211  -33.7650   38.9201 C   0  0  0  0  0  0  0  0  0  0  0  0
  -24.8806  -34.7077   42.8073 P   0  0  0  0  0  4  0  0  0  0  0  0
  -25.2040  -33.6421   36.8638 O   0  0  0  0  0  0  0  0  0  0  0  0
  -24.2016  -34.8438   43.6683 O   0  0  0  0  0  0  0  0  0  0  0  0
  -23.8982  -34.4560   41.6367 O   0  0  0  0  0  0  0  0  0  0  0  0
  -25.7359  -34.1005   39.6651 C   0  0  0  0  0  0  0  0  0  0  0  0
  -24.2043  -33.9794   39.1447 C   0  0  0  0  0  0  0  0  0  0  0  0
  -22.7838  -33.6349   36.9556 C   0  0  0  0  0  0  0  0  0  0  0  0
  6  1  1  0
  7  1  2  0
  7  4  1  0
  8  5  1  0
  9  2  1  0
 10  8  1  0
 11  6  1  0
 11  8  1  0
 12  6  1  0
 13  1  1  0
 13  2  1  0
 13  6  1  0
 13 12  1  0
 14  2  1  0
 14  3  1  0
 14  4  2  0
M  RAD  3   2   2   5   2   8   2
M  END
>  <ID>  (1) 
conformer_0

$$$$
