
     RDKit          3D

 14 14  0  0  0  0  0  0  0  0999 V2000
  -23.3525  -33.8677   39.7397 C   0  0  0  0  0  0  0  0  0  0  0  0
  -24.0073  -33.7187   37.3545 C   0  0  0  0  0  0  0  0  0  0  0  0
  -21.7020  -33.3566   38.0038 N   0  0  0  0  0  0  0  0  0  0  0  0
  -25.1438  -33.6184   36.4802 O   0  0  0  0  0  0  0  0  0  0  0  0
  -24.0142  -34.9291   41.6603 O   0  0  0  0  0  0  0  0  0  0  0  0
  -25.0047  -35.0872   42.8848 P   0  0  0  0  0  0  0  0  0  0  0  0
  -23.9475  -34.7590   43.9492 O   0  0  0  0  0  0  0  0  0  0  0  0
  -24.3856  -34.0078   40.5938 C   0  0  0  0  0  0  0  0  0  0  0  0
  -21.9494  -33.7470   39.2491 C   0  0  0  0  0  0  0  0  0  0  0  0
  -22.6791  -33.2110   35.4742 C   0  0  0  0  0  0  0  0  0  0  0  0
  -25.9618  -34.0980   42.3533 O   0  0  0  0  0  0  0  0  0  0  0  0
  -25.5142  -36.0134   43.3410 O   0  0  0  0  0  0  0  0  0  0  0  0
  -24.1878  -33.9301   38.6720 C   0  0  0  0  0  0  0  0  0  0  0  0
  -22.5029  -33.3427   37.1174 C   0  0  0  0  0  0  0  0  0  0  0  0
  4  2  1  0
  7  6  1  0
  8  1  1  0
  8  5  2  0
  9  1  2  0
  9  3  1  0
 11  6  1  0
 11  8  1  0
 12  6  1  0
 13  1  1  0
 13  2  2  0
 14  2  1  0
 14  3  2  0
 14 10  1  0
M  END
>  <ID>  (1) 
conformer_0

$$$$
