
     RDKit          3D

 15 15  0  0  0  0  0  0  0  0999 V2000
  -22.7413  -33.4454   37.0617 C   0  0  0  0  0  0  0  0  0  0  0  0
  -23.5730  -33.8658   39.5137 C   0  0  0  0  0  0  0  0  0  0  0  0
  -26.0326  -33.8991   39.5288 C   0  0  0  0  0  0  0  0  0  0  0  0
  -24.7025  -34.8460   42.8654 P   0  0  0  0  0  0  0  0  0  0  0  0
  -25.2793  -33.5945   36.4017 O   0  0  0  0  0  0  0  0  0  0  0  0
  -21.9981  -33.4208   37.8036 N   0  0  0  0  0  0  0  0  0  0  0  0
  -23.6732  -34.3905   41.7732 O   0  0  0  0  0  0  0  0  0  0  0  0
  -22.2213  -33.7103   39.0502 C   0  0  0  0  0  0  0  0  0  0  0  0
  -22.7711  -33.5619   35.2321 C   0  0  0  0  0  0  0  0  0  0  0  0
  -24.0487  -34.5977   43.8686 O   0  0  0  0  0  0  0  0  0  0  0  0
  -26.0508  -34.5119   43.0188 O   0  0  0  0  0  0  0  0  0  0  0  0
  -23.9738  -34.0006   40.7308 C   0  0  0  0  0  0  0  0  0  0  0  0
  -24.9864  -36.1344   42.1632 O   0  0  0  0  0  0  0  0  0  0  0  0
  -24.6074  -33.8162   38.5856 C   0  0  0  0  0  0  0  0  0  0  0  0
  -24.1995  -33.7519   37.1285 C   0  0  0  0  0  0  0  0  0  0  0  0
  6  1  2  0
  8  2  2  0
  8  6  1  0
  9  1  1  0
 10  4  1  0
 11  4  1  0
 12  2  1  0
 12  7  2  0
 12 11  1  0
 13  4  1  0
 14  2  1  0
 14  3  1  0
 15  1  1  0
 15  5  1  0
 15 14  2  0
M  END
>  <ID>  (1) 
conformer_0

$$$$
