
     RDKit          3D

 15 15  0  0  0  0  0  0  0  0999 V2000
  -23.5585  -33.8901   39.4524 C   0  0  0  0  0  0  0  0  0  0  0  0
  -24.3951  -33.7156   37.0344 C   0  0  0  0  0  0  0  0  0  0  0  0
  -21.8825  -33.6502   37.8219 N   0  0  0  0  0  0  0  0  0  0  0  0
  -24.6599  -34.9224   43.3244 P   0  0  0  0  0  0  0  0  0  0  0  0
  -23.8162  -34.6363   41.9285 O   0  0  0  0  0  0  0  0  0  0  0  0
  -22.6512  -33.7313   35.2379 C   0  0  0  0  0  0  0  0  0  0  0  0
  -22.9156  -33.6616   37.0423 C   0  0  0  0  0  0  0  0  0  0  0  0
  -25.3792  -33.4362   36.2186 O   0  0  0  0  0  0  0  0  0  0  0  0
  -24.1408  -34.0163   40.5665 C   0  0  0  0  0  0  0  0  0  0  0  0
  -24.7582  -36.2565   43.8253 O   0  0  0  0  0  0  0  0  0  0  0  0
  -25.8252  -34.6562   42.7059 O   0  0  0  0  0  0  0  0  0  0  0  0
  -26.1775  -33.5408   39.2337 C   0  0  0  0  0  0  0  0  0  0  0  0
  -24.1896  -33.9583   44.0754 O   0  0  0  0  0  0  0  0  0  0  0  0
  -24.5822  -33.7878   38.7029 C   0  0  0  0  0  0  0  0  0  0  0  0
  -22.1042  -33.7419   38.9945 C   0  0  0  0  0  0  0  0  0  0  0  0
  7  2  2  0
  7  3  1  0
  7  6  1  0
  8  2  1  0
  9  1  1  0
  9  5  2  0
 10  4  1  0
 11  4  1  0
 11  9  1  0
 13  4  1  0
 14  1  2  0
 14  2  1  0
 14 12  1  0
 15  1  1  0
 15  3  2  0
M  END
>  <ID>  (1) 
conformer_0

$$$$
