
     RDKit          3D

 15 15  0  0  0  0  0  0  0  0999 V2000
  -24.5605  -33.8201   38.8177 C   0  0  0  0  0  0  0  0  0  0  0  0
  -22.8715  -33.5296   36.8307 C   0  0  0  0  0  0  0  0  0  0  0  0
  -22.6577  -33.4586   35.4827 C   0  0  0  0  0  0  0  0  0  0  0  0
  -22.1987  -33.5456   37.7114 N   0  0  0  0  0  0  0  0  0  0  0  0
  -23.8912  -33.8610   40.9271 C   0  0  0  0  0  0  0  0  0  0  0  0
  -24.7222  -34.9681   42.8876 P   0  0  0  0  0  0  0  0  0  0  0  0
  -23.7759  -34.1038   42.2240 O   0  0  0  0  0  0  0  0  0  0  0  0
  -24.2049  -35.1522   44.0552 O   0  0  0  0  0  0  0  0  0  0  0  0
  -22.2007  -33.5318   38.8935 C   0  0  0  0  0  0  0  0  0  0  0  0
  -25.3426  -33.6160   36.3909 O   0  0  0  0  0  0  0  0  0  0  0  0
  -25.8199  -33.8058   39.4063 C   0  0  0  0  0  0  0  0  0  0  0  0
  -24.7887  -36.2000   42.1560 O   0  0  0  0  0  0  0  0  0  0  0  0
  -26.0115  -34.2302   42.5346 O   0  0  0  0  0  0  0  0  0  0  0  0
  -23.3968  -33.7262   39.6187 C   0  0  0  0  0  0  0  0  0  0  0  0
  -24.3808  -33.8360   37.2979 C   0  0  0  0  0  0  0  0  0  0  0  0
  3  2  1  0
  4  2  1  0
  7  5  1  0
  7  6  1  0
  8  6  1  0
  9  4  2  0
 11  1  1  0
 12  6  1  0
 13  5  2  0
 14  1  2  0
 14  5  1  0
 14  9  1  0
 15  1  1  0
 15  2  2  0
 15 10  1  0
M  END
>  <ID>  (1) 
conformer_0

$$$$
