
     RDKit          3D

 16 16  0  0  0  0  0  0  0  0999 V2000
  -23.0579  -33.6314   39.3638 C   0  0  0  0  0  0  0  0  0  0  0  0
  -22.4554  -33.6116   36.8233 C   0  0  0  0  0  0  0  0  0  0  0  0
  -23.3864  -33.8365   40.7644 C   0  0  2  0  0  0  0  0  0  0  0  0
  -23.9119  -35.0026   41.5947 O   0  0  0  0  0  0  0  0  0  0  0  0
  -23.6976  -35.1998   44.0750 O   0  0  0  0  0  0  0  0  0  0  0  0
  -21.7450  -33.6914   37.4458 N   0  0  0  0  0  0  0  0  0  0  0  0
  -22.6559  -33.6230   35.2777 C   0  0  0  0  0  0  0  0  0  0  0  0
  -21.8144  -33.6642   38.8675 C   0  0  0  0  0  0  0  0  0  0  0  0
  -24.7614  -35.1735   43.0654 P   0  0  0  0  0  0  0  0  0  0  0  0
  -25.3140  -33.5304   36.6691 O   0  0  0  0  0  0  0  0  0  0  0  0
  -25.8701  -33.7433   39.3945 C   0  0  0  0  0  0  0  0  0  0  0  0
  -25.5604  -35.9307   43.0685 O   0  0  0  0  0  0  0  0  0  0  0  0
  -25.4106  -33.3666   38.9415 C   0  0  0  0  0  0  0  0  0  0  0  0
  -24.1467  -33.5507   38.4726 C   0  0  0  0  0  0  0  0  0  0  0  0
  -25.0170  -33.9345   42.7213 O   0  0  0  0  0  0  0  0  0  0  0  0
  -24.0798  -33.7199   37.0839 C   0  0  0  0  0  0  0  0  0  0  0  0
  3  1  1  0
  3  4  1  6
  6  2  2  0
  7  2  1  0
  8  1  2  0
  8  6  1  0
  9  5  1  0
 12  9  1  0
 13 11  2  3
 14  1  1  0
 14 13  1  0
 15  3  1  0
 15  9  1  0
 16  2  1  0
 16 10  1  0
 16 14  2  0
M  END
>  <ID>  (1) 
conformer_0

$$$$
