
     RDKit          3D

 15 16  0  0  0  0  0  0  0  0999 V2000
  -23.4499  -33.9340   39.4540 C   0  0  0  0  0  0  0  0  0  0  0  0
  -24.2683  -33.8305   37.1314 C   0  0  0  0  0  0  0  0  0  0  0  0
  -22.1358  -33.5545   37.6404 N   0  0  0  0  0  0  0  0  0  0  0  0
  -22.6590  -33.4650   35.3023 C   0  0  0  0  0  0  0  0  0  0  0  0
  -24.8693  -34.7727   42.6862 P   0  0  0  0  0  0  0  0  0  0  0  0
  -22.0574  -33.7026   38.9976 C   0  0  0  0  0  0  0  0  0  0  0  0
  -26.1602  -34.3460   42.3126 O   0  0  0  0  0  0  0  0  0  0  0  0
  -24.5417  -34.0238   40.4816 C   0  0  0  0  0  0  0  0  0  0  0  0
  -25.1119  -33.5756   36.3737 O   0  0  0  0  0  0  0  0  0  0  0  0
  -24.1306  -34.1751   43.5904 O   0  0  0  0  0  0  0  0  0  0  0  0
  -23.9400  -34.5476   41.5583 O   0  0  0  0  0  0  0  0  0  0  0  0
  -25.0725  -36.2444   42.6107 O   0  0  0  0  0  0  0  0  0  0  0  0
  -25.7425  -34.0388   39.5316 C   0  0  0  0  0  0  0  0  0  0  0  0
  -24.4651  -34.0247   38.5728 C   0  0  0  0  0  0  0  0  0  0  0  0
  -22.7079  -33.4966   36.8869 C   0  0  0  0  0  0  0  0  0  0  0  0
  6  1  2  0
  6  3  1  0
  7  5  1  0
  8  1  1  0
  8  7  1  0
  9  2  1  0
 10  5  1  0
 11  8  1  0
 12  5  1  0
 13  8  1  0
 14  1  1  0
 14  2  2  0
 14 13  1  0
 15  2  1  0
 15  3  2  0
 15  4  1  0
M  END
>  <ID>  (1) 
conformer_0

$$$$
