
     RDKit          3D

 15 17  0  0  0  0  0  0  0  0999 V2000
  -23.2105  -33.7477   39.4191 C   0  0  0  0  0  3  0  0  0  0  0  0
  -24.3048  -33.9832   37.2940 C   0  0  0  0  0  0  0  0  0  0  0  0
  -22.3197  -33.4247   37.3440 N   0  0  0  0  0  0  0  0  0  0  0  0
  -23.7479  -34.5482   41.9054 O   0  0  0  0  0  0  0  0  0  0  0  0
  -23.0487  -33.5492   35.2049 C   0  0  0  0  0  0  0  0  0  0  0  0
  -24.8676  -34.8933   43.0203 P   0  0  0  0  0  0  0  0  0  0  0  0
  -26.1468  -34.2211   42.5897 O   0  0  0  0  0  0  0  0  0  0  0  0
  -24.0282  -33.9492   40.7827 C   0  0  0  0  0  0  0  0  0  0  0  0
  -22.9570  -33.5021   36.7485 C   0  0  0  0  0  0  0  0  0  0  0  0
  -24.1264  -34.5712   44.0908 O   0  0  0  0  0  0  0  0  0  0  0  0
  -25.6255  -33.7798   39.8947 C   0  0  0  0  0  0  0  0  0  0  0  0
  -25.1030  -34.0583   36.2513 O   0  0  0  0  0  0  0  0  0  0  0  0
  -25.2553  -36.2060   43.0051 O   0  0  0  0  0  0  0  0  0  0  0  0
  -24.5218  -33.9208   38.8991 C   0  0  0  0  0  0  0  0  0  0  0  0
  -22.0866  -33.4647   38.6609 C   0  0  0  0  0  0  0  0  0  0  0  0
  7  6  1  0
  8  1  1  0
  8  4  1  0
  9  2  2  0
  9  3  1  0
  9  5  1  0
 10  6  1  0
 11  7  1  0
 11  8  1  0
 12  2  1  0
 13  6  1  0
 14  1  1  0
 14  2  1  0
 14  8  1  0
 14 11  1  0
 15  1  1  0
 15  3  2  0
M  RAD  1   1   2
M  END
>  <ID>  (1) 
conformer_0

$$$$
