
     RDKit          3D

 16 17  0  0  0  0  0  0  0  0999 V2000
  -24.2867  -33.7947   37.1655 C   0  0  0  0  0  3  0  0  0  0  0  0
  -24.4937  -33.8374   38.7059 C   0  0  0  0  0  0  0  0  0  0  0  0
  -24.8703  -34.9154   42.9070 P   0  0  0  0  0  0  0  0  0  0  0  0
  -22.0669  -33.4389   37.4087 N   0  0  0  0  0  0  0  0  0  0  0  0
  -23.8404  -34.3753   41.5929 O   0  0  0  0  0  0  0  0  0  0  0  0
  -22.5843  -33.3549   35.1422 C   0  0  0  0  0  0  0  0  0  0  0  0
  -22.5555  -33.6933   40.6469 C   0  0  0  0  0  0  0  0  0  0  0  0
  -23.9667  -34.5234   43.9418 O   0  0  0  0  0  0  0  0  0  0  0  0
  -26.0714  -34.4064   42.7918 O   0  0  0  0  0  0  0  0  0  0  0  0
  -26.0318  -33.7245   39.2654 C   0  0  0  0  0  0  0  0  0  0  0  0
  -22.1416  -33.5296   38.5629 C   0  0  0  0  0  3  0  0  0  0  0  0
  -25.0611  -33.6196   36.3312 O   0  0  0  0  0  0  0  0  0  0  0  0
  -25.0528  -36.2112   42.7040 O   0  0  0  0  0  0  0  0  0  0  0  0
  -23.0526  -33.7855   39.3846 C   0  0  0  0  0  0  0  0  0  0  0  0
  -22.8494  -33.3502   36.6613 C   0  0  0  0  0  0  0  0  0  0  0  0
  -24.5845  -34.3015   40.2956 C   0  0  0  0  0  0  0  0  0  0  0  0
  2  1  1  0
  8  3  1  0
  9  3  1  0
 10  2  1  0
 11  4  1  0
 12  1  1  0
 13  3  1  0
 14  2  1  0
 14  7  1  0
 14 11  1  0
 15  1  1  0
 15  4  2  0
 15  6  1  0
 16  2  1  0
 16  5  1  0
 16  9  1  0
 16 14  1  0
M  RAD  2   1   2  11   2
M  END
>  <ID>  (1) 
conformer_0

$$$$
