
     RDKit          3D

 15 15  0  0  0  0  0  0  0  0999 V2000
  -24.4540  -33.5744   38.6611 C   0  0  0  0  0  0  0  0  0  0  0  0
  -24.3167  -33.5407   37.0928 C   0  0  0  0  0  0  0  0  0  0  0  0
  -21.9056  -33.5220   37.6712 N   0  0  0  0  0  0  0  0  0  0  0  0
  -25.4026  -33.3877   36.2681 O   0  0  0  0  0  0  0  0  0  0  0  0
  -23.8199  -34.0048   40.6758 C   0  0  0  0  0  0  0  0  0  0  0  0
  -22.5457  -33.3598   35.2815 C   0  0  0  0  0  0  0  0  0  0  0  0
  -24.8643  -35.0085   42.9767 P   0  0  0  0  0  0  0  0  0  0  0  0
  -24.0374  -34.8507   41.7833 O   0  0  0  0  0  0  0  0  0  0  0  0
  -22.7316  -33.4486   36.8664 C   0  0  0  0  0  0  0  0  0  0  0  0
  -23.9680  -34.8636   44.1155 O   0  0  0  0  0  0  0  0  0  0  0  0
  -25.9693  -34.1349   42.5452 O   0  0  0  0  0  0  0  0  0  0  0  0
  -25.9344  -33.4377   39.1707 C   0  0  0  0  0  0  0  0  0  0  0  0
  -23.3357  -33.7297   39.4824 C   0  0  0  0  0  0  0  0  0  0  0  0
  -21.9811  -33.6664   38.8614 C   0  0  0  0  0  0  0  0  0  0  0  0
  -25.1552  -36.2348   43.2035 O   0  0  0  0  0  0  0  0  0  0  0  0
  2  1  2  0
  4  2  1  0
  8  5  1  0
  8  7  1  0
  9  2  1  0
  9  3  2  0
  9  6  1  0
 10  7  1  0
 11  5  2  0
 12  1  1  0
 13  1  1  0
 13  5  1  0
 14  3  1  0
 14 13  2  0
 15  7  1  0
M  END
>  <ID>  (1) 
conformer_0

$$$$
