
     RDKit          3D

 15 15  0  0  0  0  0  0  0  0999 V2000
  -24.5039  -33.7138   37.1319 C   0  0  0  0  0  0  0  0  0  0  0  0
  -23.3874  -33.8508   39.5516 C   0  0  0  0  0  0  0  0  0  0  0  0
  -24.7115  -34.8361   42.7700 P   0  0  0  0  0  4  0  0  0  0  0  0
  -23.8279  -34.2495   41.6765 O   0  0  0  0  0  0  0  0  0  0  0  0
  -22.7401  -33.5195   35.3759 C   0  0  0  0  0  0  0  0  0  0  0  0
  -25.3815  -33.3916   36.3829 O   0  0  0  0  0  0  0  0  0  0  0  0
  -22.9391  -33.5336   36.8958 C   0  0  0  0  0  0  0  0  0  0  0  0
  -24.2836  -35.5336   43.5503 O   0  0  0  0  0  0  0  0  0  0  0  0
  -24.1145  -33.8810   40.4215 C   0  0  0  0  0  0  0  0  0  0  0  0
  -21.3361  -33.5105   38.9298 O   0  0  0  0  0  0  0  0  0  0  0  0
  -25.9687  -34.2988   42.5277 O   0  0  0  0  0  1  0  0  0  0  0  0
  -25.8061  -33.6521   39.3156 C   0  0  0  0  0  0  0  0  0  0  0  0
  -22.3377  -33.4992   37.6201 N   0  0  0  0  0  0  0  0  0  0  0  0
  -22.2688  -33.6950   38.7612 C   0  0  0  0  0  0  0  0  0  0  0  0
  -24.6260  -33.8261   38.6453 C   0  0  0  0  0  0  0  0  0  0  0  0
  4  3  1  0
  6  1  1  0
  7  1  1  0
  7  5  1  0
  8  3  1  0
  9  2  1  0
  9  4  1  0
 11  3  1  0
 13  7  1  0
 14  2  1  0
 14 10  1  0
 14 13  2  0
 15  1  1  0
 15  2  2  0
 15 12  1  0
M  RAD  2   3   2  11   2
M  END
>  <ID>  (1) 
conformer_0

$$$$
