
     RDKit          3D

 15 15  0  0  0  0  0  0  0  0999 V2000
  -24.4996  -33.8097   38.5051 C   0  0  0  0  0  0  0  0  0  0  0  0
  -22.8220  -33.4286   36.9645 C   0  0  0  0  0  0  0  0  0  0  0  0
  -24.7250  -34.9790   42.9419 P   0  0  0  0  0  0  0  0  0  0  0  0
  -23.9287  -33.9515   40.5407 C   0  0  0  0  0  0  0  0  0  0  0  0
  -23.7602  -34.5492   41.6737 O   0  0  0  0  0  0  0  0  0  0  0  0
  -25.5978  -33.3293   36.2325 O   0  0  0  0  0  0  0  0  0  0  0  0
  -22.0684  -33.6572   38.8282 C   0  0  0  0  0  0  0  0  0  0  0  0
  -24.0294  -34.4395   43.9480 O   0  0  0  0  0  0  0  0  0  0  0  0
  -22.5592  -33.4011   35.3941 C   0  0  0  0  0  0  0  0  0  0  0  0
  -25.9630  -34.4818   42.4944 O   0  0  0  0  0  0  0  0  0  0  0  0
  -22.0910  -33.5997   37.5854 N   0  0  0  0  0  0  0  0  0  0  0  0
  -25.0439  -36.3782   42.9600 O   0  0  0  0  0  0  0  0  0  0  0  0
  -25.8465  -33.9536   39.4265 C   0  0  0  0  0  0  0  0  0  0  0  0
  -23.4272  -33.7755   39.3168 C   0  0  0  0  0  0  0  0  0  0  0  0
  -24.4219  -33.5966   37.0275 C   0  0  0  0  0  0  0  0  0  0  0  0
  5  4  2  0
  8  3  1  0
  9  2  1  0
 10  3  1  0
 10  4  1  0
 11  2  1  0
 11  7  2  0
 12  3  1  0
 13  1  1  0
 14  1  2  0
 14  4  1  0
 14  7  1  0
 15  1  1  0
 15  2  2  0
 15  6  1  0
M  END
>  <ID>  (1) 
conformer_0

$$$$
