
     RDKit          3D

 15 15  0  0  0  0  0  0  0  0999 V2000
  -24.3503  -33.6749   37.0989 C   0  0  0  0  0  0  0  0  0  0  0  0
  -24.4290  -33.5514   38.4957 C   0  0  0  0  0  0  0  0  0  0  0  0
  -21.9632  -33.6747   37.4493 N   0  0  0  0  0  0  0  0  0  0  0  0
  -22.5683  -33.6891   35.1262 C   0  0  0  0  0  0  0  0  0  0  0  0
  -21.9965  -33.6914   38.7705 C   0  0  0  0  0  0  0  0  0  0  0  0
  -24.8242  -34.9971   43.0954 P   0  0  0  0  0  0  0  0  0  0  0  0
  -23.6999  -33.7707   40.6134 C   0  0  0  0  0  0  0  0  0  0  0  0
  -23.8973  -34.1657   41.8784 O   0  0  0  0  0  0  0  0  0  0  0  0
  -24.1419  -34.4608   44.2229 O   0  0  0  0  0  0  0  0  0  0  0  0
  -25.1731  -33.5960   36.2917 O   0  0  0  0  0  0  0  0  0  0  0  0
  -25.8836  -33.2007   38.9668 C   0  0  0  0  0  0  0  0  0  0  0  0
  -26.0084  -34.7891   42.6974 O   0  0  0  0  0  0  0  0  0  0  0  0
  -22.8060  -33.7353   36.6425 C   0  0  0  0  0  0  0  0  0  0  0  0
  -23.1721  -33.7512   39.3602 C   0  0  0  0  0  0  0  0  0  0  0  0
  -24.3955  -36.2578   43.2962 O   0  0  0  0  0  0  0  0  0  0  0  0
  2  1  2  0
  5  3  1  0
  8  7  2  0
  9  6  1  0
 10  1  1  0
 11  2  1  0
 12  6  1  0
 12  7  1  0
 13  1  1  0
 13  3  2  0
 13  4  1  0
 14  2  1  0
 14  5  2  0
 14  7  1  0
 15  6  1  0
M  END
>  <ID>  (1) 
conformer_0

$$$$
