
     RDKit          3D

 15 16  0  0  0  0  0  0  0  0999 V2000
  -23.2972  -33.8083   39.5824 C   0  0  0  0  0  3  0  0  0  0  0  0
  -24.2485  -33.7867   37.3035 C   0  0  0  0  0  0  0  0  0  0  0  0
  -22.1755  -33.3993   37.6425 N   0  0  0  0  0  0  0  0  0  0  0  0
  -22.5942  -33.5780   35.3962 C   0  0  0  0  0  0  0  0  0  0  0  0
  -25.3526  -33.6860   36.4549 O   0  0  0  0  0  0  0  0  0  0  0  0
  -24.7907  -35.0946   42.8924 P   0  0  0  0  0  0  0  0  0  0  0  0
  -23.6938  -34.5647   41.8586 O   0  0  0  0  0  0  0  0  0  0  0  0
  -22.6999  -33.5223   37.0318 C   0  0  0  0  0  0  0  0  0  0  0  0
  -24.1570  -33.8433   40.6897 C   0  0  0  0  0  0  0  0  0  0  0  0
  -26.0405  -33.7641   39.4378 C   0  0  0  0  0  0  0  0  0  0  0  0
  -25.2804  -36.4961   42.6617 O   0  0  0  0  0  0  0  0  0  0  0  0
  -25.7315  -34.2828   42.3647 O   0  0  0  0  0  0  0  0  0  0  0  0
  -24.4579  -33.8809   38.8700 C   0  0  0  0  0  0  0  0  0  0  0  0
  -24.4421  -34.8444   43.6822 O   0  0  0  0  0  0  0  0  0  0  0  0
  -22.0191  -33.7069   38.9956 C   0  0  0  0  0  0  0  0  0  0  0  0
  5  2  1  0
  8  2  2  0
  8  3  1  0
  8  4  1  0
  9  1  1  0
  9  7  1  0
 11  6  1  0
 12  6  1  0
 12  9  1  0
 13  1  1  0
 13  2  1  0
 13  9  1  0
 13 10  1  0
 14  6  1  0
 15  1  1  0
 15  3  2  0
M  RAD  1   1   2
M  END
>  <ID>  (1) 
conformer_0

$$$$
