
     RDKit          3D

 30 31  0  0  0  0  0  0  0  0999 V2000
   42.1877   36.6535   85.0971 C   0  0  0  0  0  0  0  0  0  0  0  0
   43.2623   36.7485   89.7862 C   0  0  0  0  0  0  0  0  0  0  0  0
   44.4847   39.0156   80.8458 C   0  0  0  0  0  0  0  0  0  0  0  0
   44.5896   38.6412   83.1944 C   0  0  0  0  0  0  0  0  0  0  0  0
   41.5672   36.1761   83.8090 C   0  0  0  0  0  0  0  0  0  0  0  0
   42.1099   35.9101   88.4142 C   0  0  0  0  0  0  0  0  0  0  0  0
   45.6526   36.0759   78.4725 C   0  0  0  0  0  0  0  0  0  0  0  0
   45.3004   35.8983   76.7260 C   0  0  0  0  0  0  0  0  0  0  0  0
   44.8849   37.0654   79.2534 N   0  0  0  0  0  0  0  0  0  0  0  0
   41.7869   37.1054   86.0739 C   0  0  0  0  0  0  0  0  0  0  0  0
   46.6110   35.7895   79.1007 O   0  0  0  0  0  0  0  0  0  0  0  0
   43.9877   35.5477   86.4811 C   0  0  0  0  0  0  0  0  0  0  0  0
   45.6573   38.7028   85.2692 O   0  0  0  0  0  0  0  0  0  0  0  0
   40.5368   37.8631   86.0541 C   0  0  0  0  0  0  0  0  0  0  0  0
   42.2003   36.9852   87.3087 N   0  0  0  0  0  0  0  0  0  0  0  0
   45.4818   36.1235   84.4810 S   0  0  0  0  0  6  0  0  0  0  0  0
   46.9248   36.2129   84.7101 O   0  0  0  0  0  0  0  0  0  0  0  0
   45.1743   36.7536   81.8920 C   0  0  0  0  0  0  0  0  0  0  0  0
   43.8543   40.5299   84.3819 C   0  0  0  0  0  0  0  0  0  0  0  0
   44.9417   37.4256   80.7237 C   0  0  0  0  0  0  0  0  0  0  0  0
   44.4912   39.9086   79.8869 O   0  0  0  0  0  0  0  0  0  0  0  0
   45.4198   34.8702   83.8211 O   0  0  0  0  0  0  0  0  0  0  0  0
   42.6644   37.8104   89.9216 C   0  0  0  0  0  0  0  0  0  0  0  0
   39.8884   37.7146   84.6876 C   0  0  0  0  0  0  0  0  0  0  0  0
   45.0787   37.1857   83.0953 C   0  0  0  0  0  0  0  0  0  0  0  0
   43.9326   41.2503   80.5341 C   0  0  0  0  0  0  0  0  0  0  0  0
   44.3473   39.1738   81.9725 C   0  0  0  0  0  0  0  0  0  0  0  0
   44.2726   39.5513   83.9977 O   0  0  0  0  0  0  0  0  0  0  0  0
   41.9868   37.8690   88.5948 C   0  0  0  0  0  0  0  0  0  0  0  0
   40.1518   36.7174   83.8817 C   0  0  0  0  0  0  0  0  0  0  0  0
  5  1  2  0
  8  7  1  0
  9  7  1  0
 10  1  1  0
 11  7  2  0
 12  2  1  0
 14 10  2  0
 15  6  1  0
 15 10  1  0
 16 12  1  0
 16 13  1  0
 17 16  1  0
 20  3  2  0
 20  9  1  0
 20 18  1  0
 21  3  1  0
 22 16  1  0
 23  2  1  0
 24 14  1  0
 25  4  1  0
 25 16  1  0
 25 18  2  0
 26 21  1  0
 27  3  1  0
 27  4  2  0
 28  4  1  0
 28 19  1  0
 29 15  1  0
 29 23  1  0
 30  5  1  0
 30 24  2  0
M  END
>  <ID>  (1) 
conformer_0

$$$$
