
     RDKit          3D

 27 29  0  0  0  0  0  0  0  0999 V2000
   41.1527   36.1073   83.9354 C   0  0  0  0  0  0  0  0  0  0  0  0
   43.4032   37.8296   89.4033 C   0  0  0  0  0  0  0  0  0  0  0  0
   45.5095   36.5990   82.7194 C   0  0  0  0  0  0  0  0  0  0  0  0
   42.0899   36.1577   85.1151 C   0  0  0  0  0  0  0  0  0  0  0  0
   45.5767   35.9447   76.8739 C   0  0  0  0  0  0  0  0  0  0  0  0
   44.4617   38.7212   81.1647 C   0  0  0  0  0  0  0  0  0  0  0  0
   41.6866   37.2250   86.2065 C   0  0  0  0  0  0  0  0  0  0  0  0
   43.9815   39.4800   80.1627 O   0  0  0  0  0  0  0  0  0  0  0  0
   45.3866   38.9976   84.7995 O   0  0  0  0  0  0  0  0  0  0  0  0
   41.8927   37.5753   87.4800 N   0  0  0  0  0  0  0  0  0  0  0  0
   44.9955   37.0076   79.1577 N   0  0  0  0  0  0  0  0  0  0  0  0
   41.5764   36.9662   88.7314 C   0  0  0  0  0  0  0  0  0  0  0  0
   44.1368   40.8463   80.1214 C   0  0  0  0  0  0  0  0  0  0  0  0
   45.2063   36.5567   81.6558 C   0  0  0  0  0  0  0  0  0  0  0  0
   40.5322   37.9164   85.3606 C   0  0  0  0  0  0  0  0  0  0  0  0
   45.8314   36.1870   78.3957 C   0  0  0  0  0  0  0  0  0  0  0  0
   46.6021   35.6592   79.3143 O   0  0  0  0  0  0  0  0  0  0  0  0
   46.8712   37.0659   85.2765 O   0  0  0  0  0  0  0  0  0  0  0  0
   45.7894   36.3053   84.4907 S   0  0  0  0  0  6  0  0  0  0  0  0
   42.4317   37.5092   89.9828 C   0  0  0  0  0  0  0  0  0  0  0  0
   44.1021   35.5379   85.9814 C   0  0  0  0  0  0  0  0  0  0  0  0
   44.6407   39.0159   82.4559 C   0  0  0  0  0  3  0  0  0  0  0  0
   45.2137   38.1776   83.3935 C   0  0  0  0  0  0  0  0  0  0  0  0
   40.2025   37.2183   84.1583 C   0  0  0  0  0  0  0  0  0  0  0  0
   45.0216   37.2682   80.6443 C   0  0  0  0  0  0  0  0  0  0  0  0
   46.3055   35.2018   84.4098 O   0  0  0  0  0  0  0  0  0  0  0  0
   42.1693   38.9812   88.0194 C   0  0  0  0  0  0  0  0  0  0  0  0
  4  1  2  0
  7  4  1  0
  8  6  1  0
 10  7  1  0
 12 10  1  0
 13  8  1  0
 14  3  2  0
 15  7  2  0
 16  5  1  0
 16 11  1  0
 17 16  2  0
 19  3  1  0
 19 18  1  0
 20  2  1  0
 20 12  1  0
 21  4  1  0
 21 19  1  0
 22  6  1  0
 23  3  1  0
 23  9  1  0
 23 19  1  0
 23 22  1  0
 24  1  1  0
 24 15  1  0
 25  6  2  0
 25 11  1  0
 25 14  1  0
 26 19  1  0
 27 10  1  0
M  RAD  1  22   2
M  END
>  <ID>  (1) 
conformer_0

$$$$
