
     RDKit          3D

 31 33  0  0  0  0  0  0  0  0999 V2000
   40.0262   37.2546   84.3483 C   0  0  0  0  0  0  0  0  0  0  0  0
   42.5862   37.1518   90.4265 C   0  0  0  0  0  0  0  0  0  0  0  0
   45.1358   38.3619   83.4741 C   0  0  0  0  0  0  0  0  0  0  0  0
   40.4809   36.3496   83.4864 C   0  0  0  0  0  0  0  0  0  0  0  0
   43.9668   40.9836   80.7055 C   0  0  0  0  0  0  0  0  0  0  0  0
   44.5164   38.8775   81.2875 C   0  0  0  0  0  0  0  0  0  0  0  0
   41.6995   37.7926   89.0724 C   0  0  0  0  0  0  0  0  0  0  0  0
   45.7394   36.0497   78.4367 C   0  0  0  0  0  0  0  0  0  0  0  0
   44.9282   36.9658   79.2256 N   0  0  0  0  0  0  0  0  0  0  0  0
   47.2434   36.6542   84.7925 O   0  0  0  0  0  1  0  0  0  0  0  0
   44.2448   39.7372   80.3027 O   0  0  0  0  0  0  0  0  0  0  0  0
   46.0586   36.3825   84.3930 S   0  0  0  0  0  4  0  0  0  0  0  0
   45.4271   36.1135   76.6963 C   0  0  0  0  0  0  0  0  0  0  0  0
   44.3989   38.6580   82.5755 C   0  0  0  0  0  0  0  0  0  0  0  0
   46.7544   35.7057   78.8234 O   0  0  0  0  0  0  0  0  0  0  0  0
   42.9238   35.6799   89.2721 C   0  0  0  0  0  0  0  0  0  0  0  0
   41.4731   35.5180   84.0362 C   0  0  0  0  0  0  0  0  0  0  0  0
   41.7103   36.9426   85.9803 C   0  0  0  0  0  0  0  0  0  0  0  0
   42.3711   38.8368   86.9904 C   0  0  0  0  0  0  0  0  0  0  0  0
   45.1989   38.8683   84.7739 O   0  0  0  0  0  0  0  0  0  0  0  0
   42.2905   36.9522   87.2041 N   0  0  0  0  0  0  0  0  0  0  0  0
   45.6693   36.5944   81.5179 C   0  0  0  0  0  0  0  0  0  0  0  0
   45.9658   34.9747   84.0588 O   0  0  0  0  0  1  0  0  0  0  0  0
   44.0193   35.5425   86.1130 C   0  0  0  0  0  0  0  0  0  0  0  0
   41.5079   37.7006   88.1047 N   0  0  0  0  0  0  0  0  0  0  0  0
   45.0552   37.3799   80.6372 C   0  0  0  0  0  0  0  0  0  0  0  0
   45.6926   36.8856   82.7852 C   0  0  0  0  0  0  0  0  0  0  0  0
   40.9752   37.8130   85.4667 C   0  0  0  0  0  0  0  0  0  0  0  0
   42.6535   38.6180   89.3419 C   0  0  0  0  0  0  0  0  0  0  0  0
   42.1432   36.1543   85.2725 C   0  0  0  0  0  0  0  0  0  0  0  0
   42.2629   35.8944   88.2764 C   0  0  0  0  0  0  0  0  0  0  0  0
  4  1  2  0
  7  2  1  0
  9  8  1  0
 11  5  1  0
 11  6  1  0
 12 10  1  0
 13  8  1  0
 14  3  2  0
 14  6  1  0
 15  8  2  0
 16  2  1  0
 17  4  1  0
 20  3  1  0
 21 18  1  0
 23 12  1  0
 24 12  1  0
 25  7  1  0
 25 19  1  0
 25 21  1  0
 26  6  2  0
 26  9  1  0
 26 22  1  0
 27  3  1  0
 27 12  1  0
 27 22  2  0
 28  1  1  0
 28 18  2  0
 29  7  1  0
 30 17  2  0
 30 18  1  0
 30 24  1  0
 31 16  1  0
 31 21  1  0
M  RAD  2  10   2  23   2
M  END
>  <ID>  (1) 
conformer_0

$$$$
