
     RDKit          3D

 26 28  0  0  0  0  0  0  0  0999 V2000
   40.6785   37.9185   85.1256 C   0  0  0  0  0  0  0  0  0  0  0  0
   43.3936   36.4400   89.6836 C   0  0  0  0  0  0  0  0  0  0  0  0
   45.1100   37.0864   80.7346 C   0  0  0  0  0  0  0  0  0  0  0  0
   41.1258   36.0149   83.8257 C   0  0  0  0  0  0  0  0  0  0  0  0
   45.2843   35.7950   76.7807 C   0  0  0  0  0  0  0  0  0  0  0  0
   45.3258   37.5943   82.9247 C   0  0  0  0  0  0  0  0  0  0  0  0
   44.1259   41.0331   80.1954 C   0  0  0  0  0  0  0  0  0  0  0  0
   45.5006   36.4040   81.5830 C   0  0  0  0  0  0  0  0  0  0  0  0
   43.4372   39.8025   85.4948 C   0  0  0  0  0  0  0  0  0  0  0  0
   47.0100   36.3983   84.5804 O   0  0  0  0  0  0  0  0  0  0  0  0
   43.9871   39.6825   79.9298 O   0  0  0  0  0  0  0  0  0  0  0  0
   44.7167   37.0410   79.0947 N   0  0  0  0  0  0  0  0  0  0  0  0
   42.2759   36.4707   88.3978 C   0  0  0  0  0  0  0  0  0  0  0  0
   45.5186   38.7611   84.9970 O   0  0  0  0  0  0  0  0  0  0  0  0
   42.2761   37.5134   87.0313 N   0  0  0  0  0  0  0  0  0  0  0  0
   46.6005   35.8156   79.2068 O   0  0  0  0  0  0  0  0  0  0  0  0
   41.8156   37.1052   85.9557 C   0  0  0  0  0  0  0  0  0  0  0  0
   45.9765   36.6504   84.3464 S   0  0  0  0  0  4  0  0  0  0  0  0
   44.5729   38.8733   82.1233 C   0  0  0  0  0  0  0  0  0  0  0  0
   42.1597   36.1982   84.9414 C   0  0  0  0  0  0  0  0  0  0  0  0
   45.5447   36.3055   78.2497 C   0  0  0  0  0  0  0  0  0  0  0  0
   43.0079   37.9620   89.2148 C   0  0  0  0  0  0  0  0  0  0  0  0
   44.4102   38.6008   80.8543 C   0  0  0  0  0  0  0  0  0  0  0  0
   44.7722   35.2349   86.0337 C   0  0  0  0  0  0  0  0  0  0  0  0
   40.1576   37.1095   84.0002 C   0  0  0  0  0  0  0  0  0  0  0  0
   42.3117   38.7763   87.5365 C   0  0  0  0  0  0  0  0  0  0  0  0
  8  3  2  0
  8  6  1  0
 11  7  1  0
 12  3  1  0
 13  2  1  0
 14  9  1  0
 15 13  1  0
 17  1  2  0
 17 15  1  0
 18  6  1  0
 18 10  1  0
 18 14  1  0
 19  6  2  0
 20  4  2  0
 20 17  1  0
 21  5  1  0
 21 12  1  0
 21 16  2  0
 22  2  1  0
 22 13  1  0
 23  3  1  0
 23 11  1  0
 23 19  1  0
 24 18  1  0
 25  1  1  0
 25  4  1  0
 26  9  1  0
 26 15  1  0
M  END
>  <ID>  (1) 
conformer_0

$$$$
