
     RDKit          3D

 27 29  0  0  0  0  0  0  0  0999 V2000
   40.7175   37.9762   85.4006 C   0  0  0  0  0  0  0  0  0  0  0  0
   42.7971   37.1947   89.8156 C   0  0  0  0  0  0  0  0  0  0  0  0
   44.5163   38.6294   80.7232 C   0  0  0  0  0  0  0  0  0  0  0  0
   40.0976   37.3870   84.2710 C   0  0  0  0  0  0  0  0  0  0  0  0
   45.2520   36.1247   76.3979 C   0  0  0  0  0  0  0  0  0  0  0  0
   44.4546   38.8644   82.3791 C   0  0  0  0  0  0  0  0  0  0  0  0
   41.9919   37.1444   86.0322 C   0  0  0  0  0  0  0  0  0  0  0  0
   45.0543   37.5856   82.8401 C   0  0  0  0  0  0  0  0  0  0  0  0
   42.4192   37.3186   87.1103 N   0  0  0  0  0  0  0  0  0  0  0  0
   44.9705   39.3737   84.9392 O   0  0  0  0  0  0  0  0  0  0  0  0
   42.9905   38.6589   89.4437 C   0  0  0  0  0  0  0  0  0  0  0  0
   44.1806   39.5010   79.8942 O   0  0  0  0  0  0  0  0  0  0  0  0
   42.7302   38.8168   87.6343 C   0  0  0  0  0  0  0  0  0  0  0  0
   45.6018   35.9658   84.5084 S   0  0  0  0  0  6  0  0  0  0  0  0
   45.5133   34.8581   84.0539 O   0  0  0  0  0  0  0  0  0  0  0  0
   42.1026   36.2131   84.8494 C   0  0  0  0  0  0  0  0  0  0  0  0
   44.0360   35.3342   86.7306 C   0  0  0  0  0  0  0  0  0  0  0  0
   46.3939   35.8489   79.1427 O   0  0  0  0  0  0  0  0  0  0  0  0
   45.2172   37.0861   80.5975 C   0  0  0  0  0  0  0  0  0  0  0  0
   44.9271   37.1022   78.6842 N   0  0  0  0  0  0  0  0  0  0  0  0
   41.9543   36.6453   88.5693 C   0  0  0  0  0  0  0  0  0  0  0  0
   45.0993   36.7266   81.7468 C   0  0  0  0  0  0  0  0  0  0  0  0
   46.9372   36.2165   84.6957 O   0  0  0  0  0  0  0  0  0  0  0  0
   45.5188   36.4870   78.0885 C   0  0  0  0  0  0  0  0  0  0  0  0
   45.9618   35.9431   80.2841 F   0  0  0  0  0  0  0  0  0  0  0  0
   40.9603   36.2332   83.9209 C   0  0  0  0  0  0  0  0  0  0  0  0
   44.1576   38.8655   85.2666 C   0  0  0  0  0  0  0  0  0  0  0  0
  4  1  2  0
  6  3  1  0
  7  1  1  0
  8  6  2  0
  9  7  1  0
 11  2  1  0
 12  3  2  0
 13  9  1  0
 13 11  1  0
 14  8  1  0
 15 14  1  0
 16  7  1  0
 17  2  1  0
 17 14  1  0
 19  3  1  0
 20 19  1  0
 21  2  1  0
 21  9  1  0
 22  8  1  0
 22 19  1  0
 23 14  1  0
 24  5  1  0
 24 18  1  0
 24 20  1  0
 25 18  1  0
 26  4  1  0
 26 16  2  0
 27 10  1  0
 27 14  1  0
M  END
>  <ID>  (1) 
conformer_0

$$$$
