
     RDKit          3D

 26 27  0  0  0  0  0  0  0  0999 V2000
   40.7565   37.7511   85.2687 C   0  0  0  0  0  0  0  0  0  0  0  0
   44.4001   38.9376   81.2315 C   0  0  0  0  0  0  0  0  0  0  0  0
   43.0612   38.5116   89.2586 C   0  0  0  0  0  0  0  0  0  0  0  0
   45.6723   35.6574   77.2705 C   0  0  0  0  0  0  0  0  0  0  0  0
   40.1020   37.3256   84.0731 C   0  0  0  0  0  0  0  0  0  0  0  0
   45.0828   38.5186   83.5282 C   0  0  0  0  0  0  0  0  0  0  0  0
   42.9531   35.5163   89.0827 C   0  0  0  0  0  0  0  0  0  0  0  0
   45.4798   36.5693   81.7038 C   0  0  0  0  0  0  0  0  0  0  0  0
   41.7889   36.7682   85.8048 C   0  0  0  0  0  0  0  0  0  0  0  0
   42.1430   36.8695   87.2500 N   0  0  0  0  0  0  0  0  0  0  0  0
   42.1069   35.8922   88.0594 C   0  0  0  0  0  0  0  0  0  0  0  0
   44.6244   39.9621   85.0108 O   0  0  0  0  0  0  0  0  0  0  0  0
   44.0795   39.7323   80.3011 O   0  0  0  0  0  0  0  0  0  0  0  0
   43.9146   41.1035   80.9126 C   0  0  0  0  0  0  0  0  0  0  0  0
   46.8602   36.9215   85.0400 O   0  0  0  0  0  0  0  0  0  0  0  0
   45.8063   36.0753   78.6027 C   0  0  0  0  0  0  0  0  0  0  0  0
   45.7749   36.3042   84.2918 S   0  0  0  0  0  4  0  0  0  0  0  0
   44.8442   36.9768   79.4371 N   0  0  0  0  0  0  0  0  0  0  0  0
   41.7844   35.9003   84.5484 C   0  0  0  0  0  0  0  0  0  0  0  0
   44.4671   38.8938   82.5745 C   0  0  0  0  0  0  0  0  0  0  0  0
   42.5488   38.2059   87.9390 C   0  0  0  0  0  0  0  0  0  0  0  0
   46.1667   35.0891   84.0300 O   0  0  0  0  0  0  0  0  0  0  0  0
   44.8677   37.4309   80.6134 C   0  0  0  0  0  0  0  0  0  0  0  0
   42.2124   37.2358   89.7840 C   0  0  0  0  0  0  0  0  0  0  0  0
   45.4178   37.0054   82.7983 C   0  0  0  0  0  0  0  0  0  0  0  0
   40.8245   36.1838   83.4280 C   0  0  0  0  0  0  0  0  0  0  0  0
  5  1  2  0
  9  1  1  0
 10  9  1  0
 11  7  1  0
 11 10  1  0
 12  6  1  0
 13  2  1  0
 14 13  1  0
 16  4  1  0
 17 15  1  0
 18 16  1  0
 19  9  1  0
 20  2  2  0
 20  6  1  0
 21  3  1  0
 21 10  1  0
 21 12  1  0
 22 17  1  0
 23  2  1  0
 23  8  2  0
 23 18  1  0
 24  3  1  0
 25  6  2  0
 25  8  1  0
 25 17  1  0
 26  5  1  0
 26 19  2  0
M  END
>  <ID>  (1) 
conformer_0

$$$$
