
     RDKit          3D

 28 29  0  0  0  0  0  0  0  0999 V2000
   42.0937   36.3587   85.0519 C   0  0  0  0  0  0  0  0  0  0  0  0
   42.6939   37.1197   89.8884 C   0  0  0  0  0  0  0  0  0  0  0  0
   45.1889   37.1823   80.5127 C   0  0  0  0  0  0  0  0  0  0  0  0
   39.9744   37.9116   84.5540 C   0  0  0  0  0  0  0  0  0  0  0  0
   40.9847   38.2373   85.4100 C   0  0  0  0  0  0  0  0  0  0  0  0
   42.5696   37.5825   87.1756 N   0  0  0  0  0  0  0  0  0  0  0  0
   45.5345   36.3779   82.6254 C   0  0  0  0  0  0  0  0  0  0  0  0
   42.8208   38.9042   87.4873 C   0  0  0  0  0  0  0  0  0  0  0  0
   44.1991   39.6279   80.4872 O   0  0  0  0  0  0  0  0  0  0  0  0
   44.0159   40.9332   80.5931 C   0  0  0  0  0  0  0  0  0  0  0  0
   45.8875   36.1889   78.2592 C   0  0  0  0  0  0  0  0  0  0  0  0
   45.4518   35.7231   76.8489 C   0  0  0  0  0  0  0  0  0  0  0  0
   46.5372   35.8801   79.0320 O   0  0  0  0  0  0  0  0  0  0  0  0
   45.5233   36.2715   81.4328 C   0  0  0  0  0  0  0  0  0  0  0  0
   45.7028   34.6497   83.7669 O   0  0  0  0  0  1  0  0  0  0  0  0
   44.9130   37.0865   79.2251 N   0  0  0  0  0  0  0  0  0  0  0  0
   41.9282   37.2842   85.9007 C   0  0  0  0  0  0  0  0  0  0  0  0
   45.0057   39.0629   84.7347 O   0  0  0  0  0  0  0  0  0  0  0  0
   43.0609   38.2952   89.7116 C   0  0  0  0  0  0  0  0  0  0  0  0
   45.5945   35.8959   84.2788 S   0  0  0  0  0  4  0  0  0  0  0  0
   44.0538   36.1287   86.4765 C   0  0  0  0  0  0  0  0  0  0  0  0
   44.5752   38.7570   81.2335 C   0  0  0  0  0  0  0  0  0  0  0  0
   44.8132   38.4982   82.5297 C   0  0  0  0  0  0  0  0  0  0  0  0
   41.2225   36.0304   83.9277 C   0  0  0  0  0  0  0  0  0  0  0  0
   42.1491   37.2098   88.4945 C   0  0  0  0  0  0  0  0  0  0  0  0
   46.8965   36.1122   84.8538 O   0  0  0  0  0  1  0  0  0  0  0  0
   45.2285   37.9990   83.2770 C   0  0  0  0  0  0  0  0  0  0  0  0
   40.1474   36.8106   83.6460 C   0  0  0  0  0  0  0  0  0  0  0  0
  5  4  2  0
  8  6  1  0
 10  9  1  0
 12 11  1  0
 13 11  2  0
 14  3  2  0
 14  7  1  0
 16  3  1  0
 16 11  1  0
 17  1  2  0
 17  5  1  0
 17  6  1  0
 19  2  1  0
 20  7  1  0
 20 15  1  0
 21  1  1  0
 21 20  1  0
 22  3  1  0
 22  9  1  0
 23 22  2  0
 24  1  1  0
 25  2  1  0
 25  6  1  0
 26 20  1  0
 27  7  2  0
 27 18  1  0
 27 23  1  0
 28  4  1  0
 28 24  2  0
M  RAD  2  15   2  26   2
M  END
>  <ID>  (1) 
conformer_0

$$$$
