
     RDKit          3D

 26 28  0  0  0  0  0  0  0  0999 V2000
   40.0452   37.1892   84.1428 C   0  0  0  0  0  0  0  0  0  0  0  0
   44.5238   38.8011   81.4658 C   0  0  0  0  0  0  0  0  0  0  0  0
   43.1909   37.0878   89.4244 C   0  0  0  0  0  0  0  0  0  0  0  0
   40.5868   37.7523   85.3100 C   0  0  0  0  0  0  0  0  0  0  0  0
   45.5492   36.6068   81.7947 C   0  0  0  0  0  3  0  0  0  0  0  0
   45.4585   37.6095   83.2775 C   0  0  0  0  0  0  0  0  0  0  0  0
   41.7685   36.7917   85.8021 C   0  0  0  0  0  0  0  0  0  0  0  0
   45.5246   35.9224   76.7106 C   0  0  0  0  0  0  0  0  0  0  0  0
   45.0267   36.8842   79.2061 N   0  0  0  0  0  0  0  0  0  0  0  0
   47.1135   36.6440   85.0001 O   0  0  0  0  0  1  0  0  0  0  0  0
   42.3647   37.0044   86.9541 N   0  0  0  0  0  0  0  0  0  0  0  0
   45.7867   36.1360   78.4450 C   0  0  0  0  0  0  0  0  0  0  0  0
   42.6704   38.5083   87.5941 C   0  0  0  0  0  0  0  0  0  0  0  0
   43.9460   39.5596   80.4157 O   0  0  0  0  0  0  0  0  0  0  0  0
   46.0321   36.4383   84.4307 S   0  0  0  0  0  4  0  0  0  0  0  0
   46.7324   35.8088   79.3764 O   0  0  0  0  0  0  0  0  0  0  0  0
   40.6971   36.1053   83.5834 C   0  0  0  0  0  0  0  0  0  0  0  0
   45.6869   34.8959   84.0561 O   0  0  0  0  0  1  0  0  0  0  0  0
   43.9189   40.8952   81.0256 C   0  0  0  0  0  0  0  0  0  0  0  0
   44.6666   38.7425   82.6668 C   0  0  0  0  0  0  0  0  0  0  0  0
   43.5343   35.6301   86.1933 C   0  0  0  0  0  0  0  0  0  0  0  0
   44.4925   39.6979   85.2761 O   0  0  0  0  0  0  0  0  0  0  0  0
   45.0435   37.4348   80.7624 C   0  0  0  0  0  0  0  0  0  0  0  0
   42.0649   36.4234   88.4951 C   0  0  0  0  0  0  0  0  0  0  0  0
   41.9197   35.9475   84.5515 C   0  0  0  0  0  3  0  0  0  0  0  0
   42.4955   38.3230   89.3256 C   0  0  0  0  0  0  0  0  0  0  0  0
  4  1  2  0
  6  5  1  0
  7  4  1  0
 11  7  1  0
 12  8  1  0
 12  9  1  0
 13 11  1  0
 14  2  1  0
 15  6  1  0
 15 10  1  0
 16 12  2  0
 17  1  1  0
 18 15  1  0
 19 14  1  0
 20  2  2  0
 20  6  1  0
 21  7  1  0
 21 15  1  0
 22  6  1  0
 23  2  1  0
 23  5  1  0
 23  9  1  0
 24  3  1  0
 24 11  1  0
 25  7  1  0
 25 17  1  0
 26  3  1  0
 26 13  1  0
M  RAD  4   5   2  10   2  18   2  25   2
M  END
>  <ID>  (1) 
conformer_0

$$$$
