
     RDKit          3D

 26 27  0  0  0  0  0  0  0  0999 V2000
   41.9328   36.1489   84.9528 C   0  0  0  0  0  0  0  0  0  0  0  0
   44.2825   39.2032   81.7712 C   0  0  0  0  0  0  0  0  0  0  0  0
   43.2920   37.2942   89.0929 C   0  0  0  0  0  0  0  0  0  0  0  0
   40.7429   36.3498   84.0542 C   0  0  0  0  0  0  0  0  0  0  0  0
   45.2111   36.6325   81.9230 C   0  0  0  0  0  0  0  0  0  0  0  0
   41.7611   37.1972   86.0551 C   0  0  0  0  0  0  0  0  0  0  0  0
   46.6261   35.6453   79.5764 O   0  0  0  0  0  0  0  0  0  0  0  0
   45.6212   35.8933   77.0014 C   0  0  0  0  0  0  0  0  0  0  0  0
   42.2133   37.2264   87.1828 N   0  0  0  0  0  0  0  0  0  0  0  0
   42.7329   38.5569   87.6797 C   0  0  0  0  0  0  0  0  0  0  0  0
   44.9449   36.9937   79.3715 N   0  0  0  0  0  0  0  0  0  0  0  0
   45.8434   36.0119   78.7980 C   0  0  0  0  0  0  0  0  0  0  0  0
   44.1317   39.9809   80.6145 O   0  0  0  0  0  0  0  0  0  0  0  0
   46.9357   36.8382   84.9958 O   0  0  0  0  0  1  0  0  0  0  0  0
   44.0984   41.1613   80.8185 C   0  0  0  0  0  0  0  0  0  0  0  0
   44.9814   37.4524   83.3021 C   0  0  0  0  0  0  0  0  0  0  0  0
   45.6960   36.6193   84.4934 S   0  0  0  0  0  4  0  0  0  0  0  0
   43.5568   39.4177   86.2042 O   0  0  0  0  0  0  0  0  0  0  0  0
   40.0969   37.5927   84.3237 C   0  0  0  0  0  0  0  0  0  0  0  0
   44.3105   38.5603   82.8603 C   0  0  0  0  0  0  0  0  0  0  0  0
   43.4024   35.3318   87.3802 C   0  0  0  0  0  0  0  0  0  0  0  0
   43.8299   35.4790   88.4515 C   0  0  0  0  0  0  0  0  0  0  0  0
   45.6555   35.0944   84.4525 O   0  0  0  0  0  1  0  0  0  0  0  0
   44.7186   37.6092   80.8254 C   0  0  0  0  0  0  0  0  0  0  0  0
   41.8729   36.7871   88.7896 C   0  0  0  0  0  0  0  0  0  0  0  0
   40.5477   38.1243   85.5928 C   0  0  0  0  0  0  0  0  0  0  0  0
  4  1  2  0
  6  1  1  0
  9  6  1  0
 10  9  1  0
 12  7  2  0
 12  8  1  0
 12 11  1  0
 13  2  1  0
 15 13  1  0
 16  5  2  0
 17 14  1  0
 17 16  1  0
 18 10  1  0
 19  4  1  0
 20  2  2  0
 20 16  1  0
 21 17  1  0
 22  3  1  0
 22 21  1  0
 23 17  1  0
 24  2  1  0
 24  5  1  0
 24 11  1  0
 25  3  1  0
 25  9  1  0
 26  6  1  0
 26 19  2  0
M  RAD  2  14   2  23   2
M  END
>  <ID>  (1) 
conformer_0

$$$$
