
     RDKit          3D

 26 28  0  0  0  0  0  0  0  0999 V2000
   40.1579   37.5516   84.2689 C   0  0  0  0  0  0  0  0  0  0  0  0
   44.4483   38.7639   81.1461 C   0  0  0  0  0  0  0  0  0  0  0  0
   43.2960   37.6499   89.6741 C   0  0  0  0  0  0  0  0  0  0  0  0
   40.6680   38.0051   85.5767 C   0  0  0  0  0  0  0  0  0  0  0  0
   41.7977   37.1521   86.1208 C   0  0  0  0  0  0  0  0  0  0  0  0
   41.9767   36.8942   88.9007 C   0  0  0  0  0  0  0  0  0  0  0  0
   45.2355   37.4207   83.2199 C   0  0  0  0  0  0  0  0  0  0  0  0
   44.1949   39.7203   80.1657 O   0  0  0  0  0  0  0  0  0  0  0  0
   43.9130   41.0044   80.7833 C   0  0  0  0  0  0  0  0  0  0  0  0
   47.0611   36.4823   84.6365 O   0  0  0  0  0  1  0  0  0  0  0  0
   42.2907   37.3361   87.4277 N   0  0  0  0  0  0  0  0  0  0  0  0
   45.2554   36.4662   81.5150 C   0  0  0  0  0  3  0  0  0  0  0  0
   45.4871   35.7977   77.1782 C   0  0  0  0  0  0  0  0  0  0  0  0
   45.7012   36.2004   84.2362 S   0  0  0  0  0  4  0  0  0  0  0  0
   45.7443   36.1413   78.4638 C   0  0  0  0  0  0  0  0  0  0  0  0
   42.0445   36.2334   84.8036 C   0  0  0  0  0  0  0  0  0  0  0  0
   44.8564   37.1315   79.3583 N   0  0  0  0  0  0  0  0  0  0  0  0
   46.6095   35.8069   79.1862 O   0  0  0  0  0  0  0  0  0  0  0  0
   44.0600   35.6677   86.6114 C   0  0  0  0  0  0  0  0  0  0  0  0
   44.5109   38.7127   82.5290 C   0  0  0  0  0  0  0  0  0  0  0  0
   45.8206   34.7474   83.7803 O   0  0  0  0  0  1  0  0  0  0  0  0
   45.0442   37.1214   81.2428 C   0  0  0  0  0  0  0  0  0  0  0  0
   40.8948   36.4281   83.7001 C   0  0  0  0  0  0  0  0  0  0  0  0
   42.7464   38.6053   87.9647 C   0  0  0  0  0  0  0  0  0  0  0  0
   45.7172   38.8799   84.7866 Cl  0  0  0  0  0  0  0  0  0  0  0  0
   43.1341   36.1404   89.6008 C   0  0  0  0  0  0  0  0  0  0  0  0
  4  1  2  0
  5  4  1  0
  6  3  1  0
  8  2  1  0
  9  8  1  0
 11  5  1  0
 11  6  1  0
 12  7  1  0
 14  7  1  0
 14 10  1  0
 15 13  1  0
 16  5  2  0
 17 15  1  0
 18 15  2  0
 19 14  1  0
 20  2  2  0
 20  7  1  0
 21 14  1  0
 22  2  1  0
 22 12  1  0
 22 17  1  0
 23  1  1  0
 23 16  1  0
 24 11  1  0
 25  7  1  0
 26  3  1  0
 26  6  1  0
 26 19  1  0
M  RAD  3  10   2  12   2  21   2
M  END
>  <ID>  (1) 
conformer_0

$$$$
