
     RDKit          3D

 29 31  0  0  0  0  0  0  0  0999 V2000
   40.4214   37.4951   84.1446 C   0  0  0  0  0  0  0  0  0  0  0  0
   44.3968   38.7543   81.1584 C   0  0  0  0  0  0  0  0  0  0  0  0
   43.2341   35.6855   89.5506 C   0  0  0  0  0  0  0  0  0  0  0  0
   40.8700   37.9488   85.4554 C   0  0  0  0  0  0  0  0  0  0  0  0
   45.5446   36.3768   76.7458 C   0  0  0  0  0  0  0  0  0  0  0  0
   44.0392   40.8673   80.3130 C   0  0  0  0  0  0  0  0  0  0  0  0
   42.1208   37.2917   86.1803 C   0  0  0  0  0  0  0  0  0  0  0  0
   43.4800   35.3719   86.7182 C   0  0  0  0  0  0  0  0  0  0  0  0
   45.5884   36.1026   78.3071 C   0  0  0  0  0  0  0  0  0  0  0  0
   42.3971   37.3282   87.4561 N   0  0  0  0  0  0  0  0  0  0  0  0
   44.0964   39.5417   80.3960 O   0  0  0  0  0  0  0  0  0  0  0  0
   45.4880   36.6087   82.3958 C   0  0  0  0  0  0  0  0  0  0  0  0
   42.4847   38.8899   87.9502 C   0  0  0  0  0  0  0  0  0  0  0  0
   45.7638   36.4840   84.1511 S   0  0  0  0  0  6  0  0  0  0  0  0
   45.4508   38.5666   84.5864 O   0  0  0  0  0  0  0  0  0  0  0  0
   43.1717   37.1905   90.1978 C   0  0  0  0  0  0  0  0  0  0  0  0
   45.4905   35.1359   84.4837 O   0  0  0  0  0  0  0  0  0  0  0  0
   42.2477   36.4087   85.1533 C   0  0  0  0  0  0  0  0  0  0  0  0
   46.3755   35.9590   79.1945 O   0  0  0  0  0  0  0  0  0  0  0  0
   44.7903   37.0312   79.2325 N   0  0  0  0  0  0  0  0  0  0  0  0
   45.4229   36.3430   81.3457 C   0  0  0  0  0  0  0  0  0  0  0  0
   42.2191   36.4010   88.6988 C   0  0  0  0  0  0  0  0  0  0  0  0
   43.8681   39.7159   84.9510 C   0  0  0  0  0  0  0  0  0  0  0  0
   46.9988   36.8378   84.6063 O   0  0  0  0  0  0  0  0  0  0  0  0
   45.0162   38.1329   83.0350 C   0  0  0  0  0  0  0  0  0  0  0  0
   41.2084   36.3398   83.9325 C   0  0  0  0  0  0  0  0  0  0  0  0
   44.4502   38.7631   82.2354 C   0  0  0  0  0  0  0  0  0  0  0  0
   44.9019   37.2417   80.4727 C   0  0  0  0  0  0  0  0  0  0  0  0
   43.1327   38.8344   89.0766 C   0  0  0  0  0  0  0  0  0  0  0  0
  4  1  2  0
  7  4  1  0
  9  5  1  0
 10  7  1  0
 11  2  1  0
 11  6  1  0
 13 10  1  0
 14  8  1  0
 14 12  1  0
 16  3  1  0
 17 14  1  0
 18  7  2  0
 18  8  1  0
 19  9  2  0
 20  9  1  0
 21 12  1  0
 22  3  1  0
 22 10  1  0
 22 16  1  0
 23 14  1  0
 24 14  1  0
 25 12  2  0
 25 15  1  0
 26  1  1  0
 26 18  1  0
 27  2  2  0
 27 25  1  0
 28  2  1  0
 28 20  1  0
 28 21  2  0
 29 13  1  0
M  END
>  <ID>  (1) 
conformer_0

$$$$
