
     RDKit          3D

 34 36  0  0  0  0  0  0  0  0999 V2000
   42.1379   36.1542   85.0111 C   0  0  0  0  0  0  0  0  0  0  0  0
   44.4916   38.7056   80.9970 C   0  0  0  0  0  0  0  0  0  0  0  0
   40.7743   37.9669   85.0789 C   0  0  0  0  0  0  0  0  0  0  0  0
   45.4525   37.0177   83.0008 C   0  0  0  0  0  0  0  0  0  0  0  0
   42.4045   38.4950   89.8108 C   0  0  0  0  0  0  0  0  0  0  0  0
   41.7030   38.0535   88.8679 C   0  0  0  0  0  0  0  0  0  0  0  0
   45.3069   35.7459   76.8259 C   0  0  0  0  0  0  0  0  0  0  0  0
   44.3602   41.0147   80.1087 C   0  0  0  0  0  0  0  0  0  0  0  0
   45.5244   36.2594   81.6369 C   0  0  0  0  0  0  0  0  0  0  0  0
   41.9923   37.4791   87.1983 N   0  0  0  0  0  0  0  0  0  0  0  0
   47.2211   36.1047   84.7228 O   0  0  0  0  0  0  0  0  0  0  0  0
   41.7015   37.0583   85.7495 C   0  0  0  0  0  0  0  0  0  0  0  0
   45.7572   36.0868   78.2334 C   0  0  0  0  0  0  0  0  0  0  0  0
   45.8236   36.1685   84.4079 S   0  0  0  0  0  6  0  0  0  0  0  0
   44.9340   37.1394   79.1281 N   0  0  0  0  0  0  0  0  0  0  0  0
   44.6150   39.5187   79.3973 O   0  0  0  0  0  0  0  0  0  0  0  0
   46.5608   35.7452   79.0005 O   0  0  0  0  0  0  0  0  0  0  0  0
   39.9933   37.4784   84.0425 C   0  0  0  0  0  0  0  0  0  0  0  0
   45.0812   39.5803   84.6663 O   0  0  0  0  0  0  0  0  0  0  0  0
   45.7371   34.5825   83.7530 O   0  0  0  0  0  0  0  0  0  0  0  0
   42.3599   39.0262   87.0297 C   0  0  0  0  0  0  0  0  0  0  0  0
   44.0600   35.4221   86.0222 C   0  0  0  0  0  0  0  0  0  0  0  0
   44.9976   37.3788   80.5125 C   0  0  0  0  0  3  0  0  0  0  0  0
   42.8614   36.8518   90.1217 C   0  0  0  0  0  0  0  0  0  0  0  0
   41.5272   35.7221   83.6543 C   0  0  0  0  0  0  0  0  0  0  0  0
   43.9671   40.1625   84.8364 C   0  0  0  0  0  0  0  0  0  0  0  0
   44.6263   38.5495   82.5067 C   0  0  0  0  0  0  0  0  0  0  0  0
   45.1754   35.9273   85.7095 N   0  0  0  0  0  0  0  0  0  0  0  0
   45.0749   38.5794   82.8665 C   0  0  0  0  0  0  0  0  0  0  0  0
   43.9961   39.8220   81.0330 O   0  0  0  0  0  0  0  0  0  0  0  0
   41.8186   36.2404   88.2865 C   0  0  0  0  0  0  0  0  0  0  0  0
   46.4396   38.0284   85.1793 O   0  0  0  0  0  0  0  0  0  0  0  0
   40.3352   36.3522   83.3496 C   0  0  0  0  0  0  0  0  0  0  0  0
   43.1214   35.1631   88.5059 C   0  0  0  0  0  0  0  0  0  0  0  0
  6  5  1  0
  9  4  2  0
 12  1  1  0
 12  3  2  0
 12 10  1  0
 13  7  1  0
 14  4  1  0
 14 11  1  0
 15 13  1  0
 16  2  1  0
 16  8  1  0
 17 13  2  0
 18  3  1  0
 20 14  1  0
 21 10  1  0
 22  1  1  0
 23  2  1  0
 23  9  1  0
 23 15  1  0
 24  5  1  0
 25  1  2  0
 26 19  1  0
 27  2  1  0
 28 14  1  0
 28 22  1  0
 29  4  1  0
 29 19  1  0
 29 27  2  0
 30  2  1  0
 30  8  1  0
 31  6  1  0
 31 10  1  0
 32 14  1  0
 33 18  2  0
 33 25  1  0
 34 31  1  0
M  RAD  1  23   2
M  END
>  <ID>  (1) 
conformer_0

$$$$
