
     RDKit          3D

 30 32  0  0  0  0  0  0  0  0999 V2000
   45.0340   37.3644   80.2111 C   0  0  0  0  0  0  0  0  0  0  0  0
   42.0612   36.2588   85.1418 C   0  0  0  0  0  0  0  0  0  0  0  0
   43.2906   36.3119   89.2711 C   0  0  2  0  0  0  0  0  0  0  0  0
   40.2131   37.0756   83.9515 C   0  0  0  0  0  0  0  0  0  0  0  0
   45.6450   35.4052   77.3067 C   0  0  0  0  0  0  0  0  0  0  0  0
   43.6973   35.2138   87.1049 C   0  0  0  0  0  0  0  0  0  0  0  0
   45.2593   37.6174   83.2192 C   0  0  2  0  0  0  0  0  0  0  0  0
   41.6439   37.1833   86.1897 C   0  0  0  0  0  0  0  0  0  0  0  0
   43.8491   40.9226   80.7640 C   0  0  0  0  0  0  0  0  0  0  0  0
   47.1630   36.2319   84.8446 O   0  0  0  0  0  0  0  0  0  0  0  0
   42.0192   37.2677   88.7926 C   0  0  1  0  0  0  0  0  0  0  0  0
   46.4242   36.1676   79.3219 O   0  0  0  0  0  0  0  0  0  0  0  0
   45.6983   36.3424   84.6258 S   0  0  0  0  0  6  0  0  0  0  0  0
   45.8423   35.9580   78.3023 C   0  0  0  0  0  0  0  0  0  0  0  0
   43.6411   39.7575   80.5702 O   0  0  0  0  0  0  0  0  0  0  0  0
   42.1381   37.4990   87.2766 N   0  0  0  0  0  0  0  0  0  0  0  0
   40.6889   37.7984   85.2685 C   0  0  0  0  0  0  0  0  0  0  0  0
   44.6183   38.6266   82.2019 C   0  0  0  0  0  0  0  0  0  0  0  0
   44.3789   38.8603   81.4986 C   0  0  0  0  0  0  0  0  0  0  0  0
   45.3260   34.9095   84.3733 O   0  0  0  0  0  0  0  0  0  0  0  0
   43.0474   37.9815   89.6021 C   0  0  0  0  0  0  0  0  0  0  0  0
   44.8590   37.1066   79.0493 N   0  0  0  0  0  0  0  0  0  0  0  0
   42.3648   39.2359   87.4985 C   0  0  0  0  0  0  0  0  0  0  0  0
   45.7319   36.3021   81.8766 C   0  0  0  0  0  0  0  0  0  0  0  0
   41.2102   36.0371   83.8352 C   0  0  0  0  0  0  0  0  0  0  0  0
   44.7954   36.1548   85.8205 N   0  0  0  0  0  0  0  0  0  0  0  0
   41.2356   38.0504   87.9776 N   0  0  0  0  0  0  0  0  0  0  0  0
   45.9355   37.8751   85.4962 O   0  0  0  0  0  0  0  0  0  0  0  0
   44.0107   39.7617   82.8229 O   0  0  0  0  0  0  0  0  0  0  0  0
   45.4863   36.7658   81.5718 C   0  0  0  0  0  0  0  0  0  0  0  0
  3  6  1  6
  8  2  2  0
 11  3  1  0
  7 13  1  1
 13 10  1  0
 14  5  1  0
 14 12  2  0
 15  9  1  0
 16  8  1  0
 16 11  1  0
 17  4  2  0
 17  8  1  0
 18  7  1  0
 19 15  1  0
 19 18  2  3
 20 13  1  0
 21  3  1  0
 11 21  1  1
 22  1  1  0
 22 14  1  0
 25  2  1  0
 25  4  1  0
 26  6  1  0
 26 13  1  0
 27 11  1  0
 27 16  1  0
 27 23  1  0
 28 13  1  0
 29 18  1  0
 30  1  1  0
 30  7  1  0
 30 24  2  3
M  END
>  <ID>  (1) 
conformer_0

$$$$
