
     RDKit          3D

 23 25  0  0  0  0  0  0  0  0999 V2000
   42.2961   36.3308   85.0276 C   0  0  0  0  0  0  0  0  0  0  0  0
   44.4661   38.5559   81.0216 C   0  0  0  0  0  0  0  0  0  0  0  0
   42.0307   38.4943   89.9605 C   0  0  0  0  0  0  0  0  0  0  0  0
   40.2263   37.3526   84.2145 C   0  0  0  0  0  0  0  0  0  0  0  0
   44.9108   37.2519   83.2743 C   0  0  0  0  0  0  0  0  0  0  0  0
   42.1069   37.7755   88.4328 C   0  0  0  0  0  0  0  0  0  0  0  0
   45.6826   36.3296   84.4130 S   0  0  0  0  0  4  0  0  0  0  0  0
   41.9780   37.1046   86.0281 C   0  0  0  0  0  0  0  0  0  0  0  0
   47.1463   36.5560   84.7506 O   0  0  0  0  0  0  0  0  0  0  0  0
   46.6360   36.1107   78.9931 O   0  0  0  0  0  0  0  0  0  0  0  0
   44.2122   39.4923   79.9102 O   0  0  0  0  0  0  0  0  0  0  0  0
   45.7593   36.1946   78.3486 C   0  0  0  0  0  0  0  0  0  0  0  0
   45.2779   36.3823   81.7690 C   0  0  0  0  0  3  0  0  0  0  0  0
   44.8125   37.2235   79.1329 N   0  0  0  0  0  0  0  0  0  0  0  0
   45.5107   34.9416   84.2996 O   0  0  0  0  0  0  0  0  0  0  0  0
   40.7317   37.8891   85.4944 C   0  0  0  0  0  0  0  0  0  0  0  0
   45.4563   38.5915   84.8539 O   0  0  0  0  0  0  0  0  0  0  0  0
   44.9267   37.2783   81.0597 C   0  0  0  0  0  0  0  0  0  0  0  0
   43.9804   40.8383   80.6643 C   0  0  0  0  0  0  0  0  0  0  0  0
   41.5093   38.1664   87.8395 N   0  0  0  0  0  0  0  0  0  0  0  0
   42.4362   36.9657   89.5104 C   0  0  0  0  0  0  0  0  0  0  0  0
   44.2721   38.5123   82.5427 C   0  0  0  0  0  0  0  0  0  0  0  0
   41.2762   36.2819   83.8219 C   0  0  0  0  0  0  0  0  0  0  0  0
  6  3  1  0
  7  5  1  0
  8  1  2  0
  9  7  1  0
 11  2  1  0
 12 10  1  0
 13  5  1  0
 14 12  1  0
 15  7  1  0
 16  4  2  0
 16  8  1  0
 17  7  1  0
 18  2  2  0
 18 13  1  0
 18 14  1  0
 19 11  1  0
 20  6  1  0
 20  8  1  0
 21  3  1  0
 21  6  1  0
 22  2  1  0
 22  5  1  0
 23  1  1  0
 23  4  1  0
 23  5  1  0
M  RAD  1  13   2
M  END
>  <ID>  (1) 
conformer_0

$$$$
