
     RDKit          3D

 27 29  0  0  0  0  0  0  0  0999 V2000
   42.0244   35.9423   84.7104 C   0  0  0  0  0  0  0  0  0  0  0  0
   45.7669   36.7164   82.4736 C   0  0  0  0  0  0  0  0  0  0  0  0
   42.6022   37.3894   89.5577 C   0  0  0  0  0  0  0  0  0  0  0  0
   40.3075   37.0973   83.8885 C   0  0  0  0  0  0  0  0  0  0  0  0
   45.6088   35.9580   77.2266 C   0  0  0  0  0  0  0  0  0  0  0  0
   45.4386   37.9467   83.4649 C   0  0  0  0  0  0  0  0  0  0  0  0
   42.7145   39.3959   86.7978 C   0  0  0  0  0  0  0  0  0  0  0  0
   44.0906   40.8952   80.3254 C   0  0  0  0  0  0  0  0  0  0  0  0
   42.0159   36.9996   85.6767 C   0  0  0  0  0  0  0  0  0  0  0  0
   44.5595   38.9419   82.4587 C   0  0  0  0  0  0  0  0  0  0  0  0
   43.8246   39.5379   80.3275 O   0  0  0  0  0  0  0  0  0  0  0  0
   44.6836   37.1267   79.3671 N   0  0  0  0  0  0  0  0  0  0  0  0
   42.3079   37.8885   86.8229 N   0  0  0  0  0  0  0  0  0  0  0  0
   42.9832   34.7367   88.2502 O   0  0  0  0  0  0  0  0  0  0  0  0
   42.0704   37.4020   88.2663 C   0  0  0  0  0  0  0  0  0  0  0  0
   41.0626   37.9177   84.8771 C   0  0  0  0  0  0  0  0  0  0  0  0
   46.0209   35.3722   84.5311 O   0  0  0  0  0  0  0  0  0  0  0  0
   42.9308   38.8731   89.1497 C   0  0  0  0  0  0  0  0  0  0  0  0
   44.3605   38.5378   81.0517 C   0  0  0  0  0  0  0  0  0  0  0  0
   46.0036   36.0286   84.2098 S   0  0  0  0  0  0  0  0  0  0  0  0
   46.6083   35.9558   79.5654 O   0  0  0  0  0  0  0  0  0  0  0  0
   43.3799   35.3418   86.9750 C   0  0  0  0  0  0  0  0  0  0  0  0
   45.7358   38.7145   84.5864 F   0  0  0  0  0  0  0  0  0  0  0  0
   45.5067   36.4327   78.3722 C   0  0  0  0  0  0  0  0  0  0  0  0
   41.0189   35.9365   83.5094 C   0  0  0  0  0  0  0  0  0  0  0  0
   45.3441   36.7063   81.5988 C   0  0  0  0  0  0  0  0  0  0  0  0
   45.0826   37.1215   80.6855 C   0  0  0  0  0  0  0  0  0  0  0  0
  6  2  2  0
  9  1  2  0
 10  6  1  0
 11  8  1  0
 13  7  1  0
 13  9  1  0
 15  3  1  0
 15 13  1  0
 16  4  2  0
 16  9  1  0
 18  3  1  0
 18 15  1  0
 19 10  2  0
 19 11  1  0
 20  2  1  0
 20 17  1  0
 22  3  1  0
 22 14  1  0
 22 17  1  0
 23  6  1  0
 24  5  1  0
 24 12  1  0
 24 21  2  0
 25  1  1  0
 25  4  1  0
 26  2  1  0
 27 12  1  0
 27 19  1  0
 27 26  2  0
M  END
>  <ID>  (1) 
conformer_0

$$$$
