
     RDKit          3D

 27 28  0  0  0  0  0  0  0  0999 V2000
   42.2704   36.4433   84.7184 C   0  0  0  0  0  0  0  0  0  0  0  0
   44.9605   37.4564   82.8266 C   0  0  0  0  0  0  0  0  0  0  0  0
   42.7859   38.0402   89.7657 C   0  0  0  0  0  0  0  0  0  0  0  0
   40.9379   37.9527   85.4369 C   0  0  0  0  0  0  0  0  0  0  0  0
   41.7832   36.6600   88.7613 C   0  0  0  0  0  0  0  0  0  0  0  0
   45.0976   37.2005   80.4842 C   0  0  0  0  0  0  0  0  0  0  0  0
   42.2577   37.3119   85.7450 C   0  0  0  0  0  0  0  0  0  0  0  0
   45.8859   36.1076   78.1248 C   0  0  0  0  0  0  0  0  0  0  0  0
   45.4190   36.1803   84.4725 S   0  0  0  0  0  4  0  0  0  0  0  0
   43.9597   40.9656   80.3503 C   0  0  0  0  0  0  0  0  0  0  0  0
   46.6522   36.6911   85.1677 O   0  0  0  0  0  1  0  0  0  0  0  0
   44.3826   38.4947   82.3291 C   0  0  0  0  0  0  0  0  0  0  0  0
   44.5608   39.1006   84.0658 O   0  0  0  0  0  0  0  0  0  0  0  0
   43.4012   40.0674   85.5325 C   0  0  0  0  0  0  0  0  0  0  0  0
   46.2669   36.0062   79.1909 O   0  0  0  0  0  0  0  0  0  0  0  0
   43.8055   39.7742   80.5980 O   0  0  0  0  0  0  0  0  0  0  0  0
   45.7165   34.9483   83.9594 O   0  0  0  0  0  1  0  0  0  0  0  0
   40.1650   37.3789   84.3468 C   0  0  0  0  0  0  0  0  0  0  0  0
   45.4986   36.0105   76.7905 C   0  0  0  0  0  0  0  0  0  0  0  0
   44.4606   38.5666   81.0367 C   0  0  0  0  0  3  0  0  0  0  0  0
   42.2766   38.0861   86.9827 N   0  0  0  0  0  0  0  0  0  0  0  0
   42.2337   38.9453   87.8013 C   0  0  0  0  0  0  0  0  0  0  0  0
   44.6410   37.9771   79.1879 O   0  0  0  0  0  0  0  0  0  0  0  0
   45.4592   36.4436   81.7367 C   0  0  0  0  0  0  0  0  0  0  0  0
   42.6556   36.3863   89.8384 C   0  0  0  0  0  0  0  0  0  0  0  0
   41.0114   36.2550   83.7793 C   0  0  0  0  0  0  0  0  0  0  0  0
   44.0038   34.9416   86.4537 C   0  0  0  0  0  0  0  0  0  0  0  0
  7  1  2  0
  7  4  1  0
  9  2  1  0
 11  9  1  0
 12  2  2  0
 13 12  1  0
 15  6  1  0
 15  8  1  0
 16 10  1  0
 17  9  1  0
 18  4  2  0
 19  8  1  0
 20  6  1  0
 20 12  1  0
 20 16  1  0
 21  7  1  0
 22  3  1  0
 22 14  1  0
 22 21  1  0
 23  6  1  0
 24  2  1  0
 24  6  1  0
 25  3  1  0
 25  5  1  0
 26  1  1  0
 26 18  1  0
 27  5  1  0
 27  9  1  0
M  RAD  3  11   2  17   2  20   2
M  END
>  <ID>  (1) 
conformer_0

$$$$
