
     RDKit          3D

 28 30  0  0  0  0  0  0  0  0999 V2000
   40.8225   38.0768   85.3415 C   0  0  0  0  0  0  0  0  0  0  0  0
   45.0311   38.2719   83.2224 C   0  0  0  0  0  0  0  0  0  0  0  0
   43.5761   35.6973   89.1577 C   0  0  0  0  0  0  0  0  0  0  0  0
   41.7780   36.0783   84.9857 C   0  0  0  0  0  0  0  0  0  0  0  0
   45.1109   37.0814   80.4606 C   0  0  0  0  0  0  0  0  0  0  0  0
   42.2674   38.8791   87.8590 C   0  0  0  0  0  0  0  0  0  0  0  0
   42.3043   37.2694   87.4170 N   0  0  0  0  0  0  0  0  0  0  0  0
   45.4280   35.5862   76.9025 C   0  0  0  0  0  0  0  0  0  0  0  0
   45.8632   36.0345   78.2492 C   0  0  0  0  0  0  0  0  0  0  0  0
   41.8042   37.2226   86.0101 C   0  0  0  0  0  0  0  0  0  0  0  0
   44.6152   39.5433   84.6186 O   0  0  0  0  0  0  0  0  0  0  0  0
   47.1984   37.0475   84.7898 O   0  0  0  0  0  1  0  0  0  0  0  0
   46.7052   35.9118   79.1358 O   0  0  0  0  0  0  0  0  0  0  0  0
   43.7238   39.3311   80.4419 O   0  0  0  0  0  0  0  0  0  0  0  0
   40.7920   36.2464   83.8609 C   0  0  0  0  0  0  0  0  0  0  0  0
   45.5581   36.6549   82.5664 C   0  0  0  0  0  3  0  0  0  0  0  0
   45.4608   36.4263   81.3995 C   0  0  0  0  0  0  0  0  0  0  0  0
   43.0419   37.1482   89.7893 C   0  0  0  0  0  0  0  0  0  0  0  0
   44.9756   36.8712   79.0437 N   0  0  0  0  0  0  0  0  0  0  0  0
   45.9233   36.6250   84.3430 S   0  0  0  0  0  4  0  0  0  0  0  0
   41.8255   36.9556   88.8666 C   0  0  0  0  0  0  0  0  0  0  0  0
   43.6851   40.2974   84.0811 C   0  0  0  0  0  0  0  0  0  0  0  0
   43.4676   35.7595   87.0795 C   0  0  0  0  0  0  0  0  0  0  0  0
   44.3176   38.5812   81.3360 C   0  0  0  0  0  0  0  0  0  0  0  0
   40.1003   37.5124   84.1280 C   0  0  0  0  0  0  0  0  0  0  0  0
   44.4900   38.6551   82.0019 C   0  0  0  0  0  0  0  0  0  0  0  0
   45.9136   35.2553   84.4683 O   0  0  0  0  0  1  0  0  0  0  0  0
   43.6975   40.8802   81.1749 C   0  0  0  0  0  0  0  0  0  0  0  0
  7  6  1  0
  9  8  1  0
 10  1  2  0
 10  4  1  0
 10  7  1  0
 11  2  1  0
 13  9  2  0
 15  4  2  0
 16  2  1  0
 17  5  2  0
 17 16  1  0
 18  3  1  0
 19  5  1  0
 19  9  1  0
 20  2  1  0
 20 12  1  0
 20 16  1  0
 21  7  1  0
 21 18  1  0
 22  1  1  0
 22 11  1  0
 23  3  1  0
 24  5  1  0
 24 14  1  0
 25  1  1  0
 25 15  1  0
 26  2  1  0
 26 24  2  0
 27 20  1  0
 28 14  1  0
M  RAD  3  12   2  16   2  27   2
M  END
>  <ID>  (1) 
conformer_0

$$$$
