
     RDKit          3D

 28 31  0  0  0  0  0  0  0  0999 V2000
   41.3509   38.1538   85.2432 C   0  0  0  0  0  0  0  0  0  0  0  0
   43.5921   36.8813   89.7031 C   0  0  0  0  0  0  0  0  0  0  0  0
   44.9375   38.0152   83.3960 C   0  0  0  0  0  0  0  0  0  0  0  0
   45.3384   35.2075   76.9804 C   0  0  0  0  0  0  0  0  0  0  0  0
   40.2912   37.9049   84.2048 C   0  0  0  0  0  0  0  0  0  0  0  0
   42.6319   38.6260   87.6078 C   0  0  0  0  0  0  0  0  0  0  0  0
   44.4453   38.1600   81.0925 C   0  0  0  0  0  0  0  0  0  0  0  0
   44.2236   39.1300   80.2167 O   0  0  0  0  0  0  0  0  0  0  0  0
   42.4727   37.1796   87.4041 N   0  0  0  0  0  0  0  0  0  0  0  0
   45.7673   36.1959   78.1598 C   0  0  0  0  0  0  0  0  0  0  0  0
   46.7837   35.9696   79.0061 O   0  0  0  0  0  0  0  0  0  0  0  0
   45.6275   36.1915   81.7142 C   0  0  0  0  0  0  0  0  0  0  0  0
   44.8146   36.9323   79.1293 N   0  0  0  0  0  0  0  0  0  0  0  0
   41.5591   36.2211   84.9329 C   0  0  0  0  0  0  0  0  0  0  0  0
   44.7496   39.4680   85.4021 O   0  0  0  0  0  0  0  0  0  0  0  0
   43.6961   35.6879   86.7154 C   0  0  0  0  0  0  0  0  0  0  0  0
   43.8183   39.6723   85.1397 C   0  0  0  0  0  0  0  0  0  0  0  0
   46.3419   37.2214   85.3835 O   0  0  0  0  0  0  0  0  0  0  0  0
   45.5634   36.5870   84.6955 S   0  0  0  0  0  6  0  0  0  0  0  0
   41.7933   37.0849   86.1160 C   0  0  0  0  0  0  0  0  0  0  0  0
   43.3478   38.2348   89.4802 C   0  0  0  0  0  0  0  0  0  0  0  0
   44.3989   38.2874   82.5351 C   0  0  0  0  0  0  0  0  0  0  0  0
   40.5015   36.5158   83.7874 C   0  0  0  0  0  0  0  0  0  0  0  0
   45.4604   36.4795   82.8407 C   0  0  0  0  0  0  0  0  0  0  0  0
   42.4896   36.4767   88.5955 C   0  0  0  0  0  0  0  0  0  0  0  0
   45.5638   36.7919   75.9821 C   0  0  0  0  0  0  0  0  0  0  0  0
   46.0451   35.2201   84.9001 O   0  0  0  0  0  0  0  0  0  0  0  0
   45.2121   36.8421   80.5926 C   0  0  0  0  0  0  0  0  0  0  0  0
  5  1  1  0
  8  7  1  0
  9  6  1  0
 10  4  1  0
 11 10  2  0
 13 10  1  0
 14  1  1  0
 17 15  1  0
 19  3  1  0
 19 16  1  0
 19 17  1  0
 19 18  1  0
 20  1  1  0
 20  9  1  0
 20 14  1  0
 21  2  1  0
 22  3  1  0
 22  7  2  0
 23  5  2  0
 23 14  1  0
 24  3  2  0
 24 12  1  0
 24 19  1  0
 25  2  1  0
 25  9  1  0
 25 16  1  0
 26  4  1  0
 27 19  1  0
 28  7  1  0
 28 12  2  0
 28 13  1  0
M  END
>  <ID>  (1) 
conformer_0

$$$$
