
     RDKit          3D

 26 27  0  0  0  0  0  0  0  0999 V2000
   42.0287   36.2659   84.6224 C   0  0  0  0  0  0  0  0  0  0  0  0
   43.3817   36.5938   89.5659 C   0  0  0  0  0  0  0  0  0  0  0  0
   44.7687   37.0257   80.6255 C   0  0  0  0  0  0  0  0  0  0  0  0
   40.3973   37.7204   85.1367 C   0  0  0  0  0  0  0  0  0  0  0  0
   44.7547   36.6060   81.9717 C   0  0  0  0  0  0  0  0  0  0  0  0
   45.5197   35.8355   76.6906 C   0  0  0  0  0  0  0  0  0  0  0  0
   45.7233   36.0630   78.2835 C   0  0  0  0  0  0  0  0  0  0  0  0
   42.1407   37.7790   88.6112 C   0  0  0  0  0  0  0  0  0  0  0  0
   44.0028   41.0217   80.8014 C   0  0  0  0  0  0  0  0  0  0  0  0
   44.9934   37.7023   83.2010 C   0  0  0  0  0  0  0  0  0  0  0  0
   46.6236   36.0292   79.1554 O   0  0  0  0  0  0  0  0  0  0  0  0
   45.7269   36.7307   84.6425 S   0  0  0  0  0  4  0  0  0  0  0  0
   44.6842   37.0398   79.1899 N   0  0  0  0  0  0  0  0  0  0  0  0
   46.8857   37.4338   85.0024 O   0  0  0  0  0  1  0  0  0  0  0  0
   44.0827   39.6971   80.3087 O   0  0  0  0  0  0  0  0  0  0  0  0
   41.6371   37.0880   85.8115 C   0  0  0  0  0  0  0  0  0  0  0  0
   45.1544   39.2806   84.4218 O   0  0  0  0  0  0  0  0  0  0  0  0
   41.0816   36.1074   83.4351 C   0  0  0  0  0  0  0  0  0  0  0  0
   42.9507   37.7013   89.8700 C   0  0  0  0  0  0  0  0  0  0  0  0
   44.2460   38.6848   82.1132 C   0  0  0  0  0  3  0  0  0  0  0  0
   42.2076   37.2556   87.0778 N   0  0  0  0  0  0  0  0  0  0  0  0
   41.6043   37.5918   87.8440 N   0  0  0  0  0  0  0  0  0  0  0  0
   44.3610   38.6572   81.3966 C   0  0  0  0  0  0  0  0  0  0  0  0
   40.0012   37.0957   83.8832 C   0  0  0  0  0  0  0  0  0  0  0  0
   43.2744   36.7416   87.0841 C   0  0  0  0  0  0  0  0  0  0  0  0
   46.2934   35.4794   84.6129 O   0  0  0  0  0  1  0  0  0  0  0  0
  5  3  2  0
  7  6  1  0
 10  5  1  0
 11  7  2  0
 12 10  1  0
 13  3  1  0
 13  7  1  0
 14 12  1  0
 15  9  1  0
 16  1  2  0
 16  4  1  0
 17 10  1  0
 18  1  1  0
 19  2  1  0
 19  8  1  0
 20 10  1  0
 21 16  1  0
 22  8  1  0
 22 21  1  0
 23  3  1  0
 23 15  1  0
 23 20  1  0
 24  4  2  0
 24 18  1  0
 25 12  1  0
 25 21  1  0
 26 12  1  0
M  RAD  3  14   2  20   2  26   2
M  END
>  <ID>  (1) 
conformer_0

$$$$
