
     RDKit          3D

 28 29  0  0  0  0  0  0  0  0999 V2000
   40.1395   37.0834   83.9389 C   0  0  0  0  0  0  0  0  0  0  0  0
   45.5110   37.0418   82.7371 C   0  0  0  0  0  0  0  0  0  0  0  0
   42.7836   38.3951   89.9006 C   0  0  0  0  0  0  0  0  0  0  0  0
   40.5619   37.7610   85.1767 C   0  0  0  0  0  0  0  0  0  0  0  0
   42.1598   36.5094   88.7427 C   0  0  0  0  0  0  0  0  0  0  0  0
   44.5161   38.9356   80.9349 C   0  0  0  0  0  0  0  0  0  0  0  0
   45.4130   38.9576   84.4105 O   0  0  0  0  0  0  0  0  0  0  0  0
   44.3731   39.8084   79.8762 O   0  0  0  0  0  0  0  0  0  0  0  0
   45.6031   35.6013   77.2240 C   0  0  0  0  0  0  0  0  0  0  0  0
   45.2884   36.5996   81.4738 C   0  0  0  0  0  0  0  0  0  0  0  0
   45.8135   36.3255   84.1663 S   0  0  0  0  0  4  0  0  0  0  0  0
   42.3319   36.5045   84.6314 C   0  0  0  0  0  0  0  0  0  0  0  0
   47.0995   36.8151   84.6626 O   0  0  0  0  0  1  0  0  0  0  0  0
   44.8841   37.1731   79.2172 N   0  0  0  0  0  0  0  0  0  0  0  0
   41.7004   37.1214   85.8408 C   0  0  0  0  0  0  0  0  0  0  0  0
   45.8445   36.0337   78.4115 C   0  0  0  0  0  0  0  0  0  0  0  0
   42.4736   38.5064   87.7788 C   0  0  0  0  0  0  0  0  0  0  0  0
   44.5514   39.0813   82.0707 C   0  0  0  0  0  0  0  0  0  0  0  0
   42.8862   36.5358   89.8327 C   0  0  0  0  0  0  0  0  0  0  0  0
   43.9763   40.8810   80.2098 C   0  0  0  0  0  0  0  0  0  0  0  0
   46.7444   36.0186   79.0621 O   0  0  0  0  0  0  0  0  0  0  0  0
   41.8105   37.4145   88.0329 N   0  0  0  0  0  0  0  0  0  0  0  0
   41.3004   36.2037   83.3831 C   0  0  0  0  0  0  0  0  0  0  0  0
   43.9079   35.8931   85.5390 C   0  0  0  0  0  0  0  0  0  0  0  0
   45.1801   38.4196   83.1636 C   0  0  0  0  0  0  0  0  0  0  0  0
   45.9739   35.1121   84.0791 O   0  0  0  0  0  1  0  0  0  0  0  0
   44.4438   40.2158   84.9858 C   0  0  0  0  0  0  0  0  0  0  0  0
   44.9924   37.4571   80.4867 C   0  0  0  0  0  0  0  0  0  0  0  0
  4  1  2  0
  8  6  1  0
 10  2  1  0
 11  2  1  0
 13 11  1  0
 15  4  1  0
 15 12  2  0
 16  9  1  0
 16 14  1  0
 18  6  2  0
 19  3  1  0
 19  5  1  0
 20  8  1  0
 21 16  2  0
 22  5  1  0
 22 15  1  0
 22 17  1  0
 23  1  1  0
 23 12  1  0
 24 11  1  0
 24 12  1  0
 25  2  2  0
 25  7  1  0
 25 18  1  0
 26 11  1  0
 27  7  1  0
 28  6  1  0
 28 10  2  0
 28 14  1  0
M  RAD  2  13   2  26   2
M  END
>  <ID>  (1) 
conformer_0

$$$$
