
     RDKit          3D

 26 27  0  0  0  0  0  0  0  0999 V2000
   43.3087   37.5528   89.7607 C   0  0  0  0  0  0  0  0  0  0  0  0
   40.1171   37.4284   84.2078 C   0  0  0  0  0  0  0  0  0  0  0  0
   44.9237   37.5438   80.1451 C   0  0  0  0  0  0  0  0  0  0  0  0
   45.4314   36.5919   81.4896 C   0  0  0  0  0  3  0  0  0  0  0  0
   40.5019   38.0456   85.4402 C   0  0  0  0  0  0  0  0  0  0  0  0
   41.7596   37.1735   86.1546 C   0  0  0  0  0  0  0  0  0  0  0  0
   45.1119   37.5627   82.8860 C   0  0  0  0  0  0  0  0  0  0  0  0
   45.7106   36.2417   78.1669 C   0  0  0  0  0  0  0  0  0  0  0  0
   46.4600   35.7897   78.9485 O   0  0  0  0  0  0  0  0  0  0  0  0
   43.8724   39.9073   80.3998 O   0  0  0  0  0  0  0  0  0  0  0  0
   45.3228   36.1713   76.5075 C   0  0  0  0  0  0  0  0  0  0  0  0
   45.6636   35.0114   84.2395 O   0  0  0  0  0  0  0  0  0  0  0  0
   44.0407   40.9282   80.4376 C   0  0  0  0  0  0  0  0  0  0  0  0
   42.4483   37.8068   90.1477 C   0  0  0  0  0  0  0  0  0  0  0  0
   44.6374   38.6182   82.2208 C   0  0  0  0  0  0  0  0  0  0  0  0
   42.2657   37.2918   87.2007 N   0  0  0  0  0  0  0  0  0  0  0  0
   45.5432   36.4306   84.2922 S   0  0  0  0  0  6  0  0  0  0  0  0
   41.9606   37.1339   88.6014 C   0  0  0  0  0  0  0  0  0  0  0  0
   42.1148   36.2554   84.9377 C   0  0  0  0  0  0  0  0  0  0  0  0
   45.3061   38.4709   84.7936 O   0  0  0  0  0  0  0  0  0  0  0  0
   44.1943   35.8707   86.3003 C   0  0  0  0  0  0  0  0  0  0  0  0
   47.0334   36.5883   84.6311 O   0  0  0  0  0  0  0  0  0  0  0  0
   44.4445   38.8234   81.0030 C   0  0  0  0  0  0  0  0  0  0  0  0
   43.6214   38.5420   86.5891 C   0  0  0  0  0  0  0  0  0  0  0  0
   44.6672   38.7954   79.0153 O   0  0  0  0  0  0  0  0  0  0  0  0
   40.9300   36.2740   83.8827 C   0  0  0  0  0  0  0  0  0  0  0  0
  4  3  1  0
  5  2  2  0
  6  5  1  0
  7  4  1  0
  8  3  1  0
  9  8  2  0
 11  8  1  0
 13 10  1  0
 14  1  1  0
 15  7  2  0
 16  6  1  0
 17  7  1  0
 17 12  1  0
 18 14  1  0
 18 16  1  0
 19  6  2  0
 20 17  1  0
 21 17  1  0
 22 17  1  0
 23  3  1  0
 23 10  1  0
 23 15  1  0
 24 16  1  0
 24 21  1  0
 25  3  1  0
 26  2  1  0
 26 19  1  0
M  RAD  1   4   2
M  END
>  <ID>  (1) 
conformer_0

$$$$
