
     RDKit          3D

 27 28  0  0  0  0  0  0  0  0999 V2000
   40.2403   37.2214   84.1532 C   0  0  0  0  0  0  0  0  0  0  0  0
   43.4687   36.6960   89.6746 C   0  0  0  0  0  0  0  0  0  0  0  0
   44.4013   39.0774   81.2436 C   0  0  0  0  0  0  0  0  0  0  0  0
   45.4915   35.7869   77.0694 C   0  0  0  0  0  0  0  0  0  0  0  0
   40.7556   37.7506   85.4671 C   0  0  0  0  0  0  0  0  0  0  0  0
   44.4794   38.9358   82.2926 C   0  0  0  0  0  0  0  0  0  0  0  0
   41.5414   37.1889   88.7332 C   0  0  0  0  0  0  0  0  0  0  0  0
   42.0414   37.0342   85.9547 C   0  0  0  0  0  0  0  0  0  0  0  0
   45.6677   36.1326   78.6279 C   0  0  0  0  0  0  0  0  0  0  0  0
   44.1870   41.0743   80.4641 C   0  0  0  0  0  0  0  0  0  0  0  0
   42.3076   37.3621   87.1424 N   0  0  0  0  0  0  0  0  0  0  0  0
   44.1334   39.7671   80.1475 O   0  0  0  0  0  0  0  0  0  0  0  0
   46.4337   35.9201   79.7682 O   0  0  0  0  0  0  0  0  0  0  0  0
   45.3568   36.4344   84.7786 S   0  0  0  0  0  4  0  0  0  0  0  0
   44.8390   38.0124   83.4395 C   0  0  0  0  0  0  0  0  0  0  0  0
   46.2350   36.7745   85.7781 O   0  0  0  0  0  1  0  0  0  0  0  0
   44.8039   37.0233   79.1885 N   0  0  0  0  0  0  0  0  0  0  0  0
   44.9141   38.6704   84.9055 O   0  0  0  0  0  0  0  0  0  0  0  0
   42.2340   36.0785   84.8790 C   0  0  0  0  0  0  0  0  0  0  0  0
   45.0391   37.4091   80.3559 C   0  0  0  0  0  0  0  0  0  0  0  0
   43.8176   38.7060   89.0244 C   0  0  0  0  0  0  0  0  0  0  0  0
   42.8889   38.5357   87.3490 C   0  0  0  0  0  0  0  0  0  0  0  0
   45.2405   36.9502   82.0392 C   0  0  0  0  0  0  0  0  0  0  0  0
   41.1441   36.1357   83.7511 C   0  0  0  0  0  0  0  0  0  0  0  0
   45.7340   35.1773   84.3867 O   0  0  0  0  0  1  0  0  0  0  0  0
   42.2976   38.4001   89.4278 C   0  0  2  0  0  0  0  0  0  0  0  0
   45.5635   36.5300   82.0565 C   0  0  0  0  0  0  0  0  0  0  0  0
  5  1  2  0
  6  3  2  3
  8  5  1  0
  9  4  1  0
 11  7  1  0
 11  8  1  0
 12  3  1  0
 12 10  1  0
 13  9  2  0
 15  6  1  0
 15 14  1  0
 16 14  1  0
 17  9  1  0
 18 15  1  0
 19  8  2  0
 19 14  1  0
 20 17  1  0
 22 11  1  0
 22 21  1  0
 23 15  1  0
 23 20  1  0
 24  1  1  0
 24 19  1  0
 25 14  1  0
 26  2  1  1
 26  7  1  0
 26 21  1  0
 27 23  2  3
M  RAD  2  16   2  25   2
M  END
>  <ID>  (1) 
conformer_0

$$$$
