
     RDKit          3D

 27 29  0  0  0  0  0  0  0  0999 V2000
   40.2279   37.5411   84.1736 C   0  0  0  0  0  0  0  0  0  0  0  0
   42.5339   36.9392   89.8205 C   0  0  0  0  0  0  0  0  0  0  0  0
   45.3242   37.9544   83.5483 C   0  0  0  0  0  0  0  0  0  0  0  0
   40.8723   38.1619   85.3665 C   0  0  0  0  0  0  0  0  0  0  0  0
   44.5039   38.7772   81.2840 C   0  0  0  0  0  0  0  0  0  0  0  0
   42.0326   36.5419   88.6378 C   0  0  0  0  0  0  0  0  0  0  0  0
   44.1385   39.6172   80.3730 O   0  0  0  0  0  0  0  0  0  0  0  0
   45.2267   36.4801   81.5434 C   0  0  0  0  0  0  0  0  0  0  0  0
   41.8847   37.1290   85.9211 C   0  0  0  0  0  0  0  0  0  0  0  0
   45.6725   36.1629   78.1991 C   0  0  0  0  0  0  0  0  0  0  0  0
   45.3698   36.0015   76.7320 C   0  0  0  0  0  0  0  0  0  0  0  0
   47.1214   36.5815   84.9224 O   0  0  0  0  0  0  0  0  0  0  0  0
   44.8810   37.1106   79.0766 N   0  0  0  0  0  0  0  0  0  0  0  0
   44.1017   40.8344   80.5388 C   0  0  0  0  0  0  0  0  0  0  0  0
   45.8708   36.2814   84.4875 S   0  0  0  0  0  6  0  0  0  0  0  0
   46.6565   35.6217   78.8404 O   0  0  0  0  0  0  0  0  0  0  0  0
   41.9166   36.0331   84.9525 C   0  0  0  0  0  0  0  0  0  0  0  0
   44.7238   38.6750   82.4583 C   0  0  0  0  0  3  0  0  0  0  0  0
   42.1791   37.3499   87.1014 N   0  0  0  0  0  0  0  0  0  0  0  0
   42.5114   38.9802   87.4404 C   0  0  0  0  0  0  0  0  0  0  0  0
   44.7197   39.1512   85.4707 O   0  0  0  0  0  0  0  0  0  0  0  0
   42.3308   38.2301   89.4735 C   0  0  0  0  0  0  0  0  0  0  0  0
   45.4629   36.5723   82.8501 C   0  0  0  0  0  0  0  0  0  0  0  0
   45.7967   34.9956   84.4473 O   0  0  0  0  0  0  0  0  0  0  0  0
   44.9166   37.3562   80.5408 C   0  0  0  0  0  0  0  0  0  0  0  0
   40.9093   36.2870   83.8189 C   0  0  0  0  0  0  0  0  0  0  0  0
   43.4786   35.6754   86.2761 C   0  0  0  0  0  0  0  0  0  0  0  0
  4  1  2  0
  6  2  1  0
  7  5  1  0
  9  4  1  0
 11 10  1  0
 13 10  1  0
 14  7  1  0
 15  3  1  0
 15 12  1  0
 16 10  2  0
 17  9  2  0
 18  3  1  0
 18  5  1  0
 19  6  1  0
 19  9  1  0
 20 19  1  0
 21  3  1  0
 22  2  1  0
 23  3  1  0
 23  8  2  0
 23 15  1  0
 24 15  1  0
 25  5  2  0
 25  8  1  0
 25 13  1  0
 26  1  1  0
 26 17  1  0
 27 15  1  0
 27 17  1  0
M  RAD  1  18   2
M  END
>  <ID>  (1) 
conformer_0

$$$$
