
     RDKit          3D

 27 30  0  0  0  0  0  0  0  0999 V2000
   42.0542   36.1283   84.9663 C   0  0  0  0  0  0  0  0  0  0  0  0
   40.7619   37.8702   85.4668 C   0  0  0  0  0  0  0  0  0  0  0  0
   45.0159   38.2885   83.4483 C   0  0  0  0  0  0  0  0  0  0  0  0
   42.9697   38.4114   89.3189 C   0  0  0  0  0  0  0  0  0  0  0  0
   45.6513   35.4126   77.4619 C   0  0  0  0  0  0  0  0  0  0  0  0
   45.2134   36.5938   81.4826 C   0  0  0  0  0  0  0  0  0  0  0  0
   41.9037   37.8104   88.5317 C   0  0  0  0  0  0  0  0  0  0  0  0
   40.9350   36.1091   83.9648 C   0  0  0  0  0  0  0  0  0  0  0  0
   44.1939   41.0777   79.8922 C   0  0  0  0  0  0  0  0  0  0  0  0
   44.3194   39.0364   81.4213 C   0  0  0  0  0  0  0  0  0  0  0  0
   45.7031   36.5607   84.5619 S   0  0  0  0  0  6  0  0  0  0  0  0
   43.9904   39.9102   80.6205 O   0  0  0  0  0  0  0  0  0  0  0  0
   44.8989   37.0472   79.3001 N   0  0  0  0  0  0  0  0  0  0  0  0
   46.9785   36.7011   85.0988 O   0  0  0  0  0  0  0  0  0  0  0  0
   46.5983   35.7943   79.5163 O   0  0  0  0  0  0  0  0  0  0  0  0
   45.7437   36.0381   78.6703 C   0  0  0  0  0  0  0  0  0  0  0  0
   41.9544   37.1885   86.0542 C   0  0  0  0  0  0  0  0  0  0  0  0
   45.1742   39.0861   84.6724 O   0  0  0  0  0  0  0  0  0  0  0  0
   42.3694   37.3100   87.2330 N   0  0  0  0  0  0  0  0  0  0  0  0
   43.1468   36.1194   87.2489 C   0  0  0  0  0  0  0  0  0  0  0  0
   44.4916   38.5978   82.5269 C   0  0  0  0  0  2  0  0  0  0  0  0
   44.9779   37.3875   80.6838 C   0  0  0  0  0  0  0  0  0  0  0  0
   40.0965   37.2764   84.2867 C   0  0  0  0  0  0  0  0  0  0  0  0
   45.7524   35.0143   84.3012 O   0  0  0  0  0  0  0  0  0  0  0  0
   43.0403   36.8387   89.5387 C   0  0  0  0  0  0  0  0  0  0  0  0
   45.4642   36.6776   82.7978 C   0  0  0  0  0  0  0  0  0  0  0  0
   43.5467   41.0431   82.3578 C   0  0  0  0  0  0  0  0  0  0  0  0
  7  4  1  0
  8  1  2  0
 11  3  1  0
 12  9  1  0
 12 10  1  0
 14 11  1  0
 16  5  1  0
 16 13  1  0
 16 15  2  0
 17  1  1  0
 17  2  1  0
 18  3  1  0
 19  7  1  0
 19 17  1  0
 20 11  1  0
 20 19  1  0
 21  3  1  0
 21 10  1  0
 22  6  1  0
 22 10  1  0
 22 13  1  0
 23  2  2  0
 23  8  1  0
 24 11  1  0
 25  4  1  0
 25  7  1  0
 26  3  1  0
 26  6  1  0
 26 11  1  0
 27 10  1  0
M  RAD  1  21   3
M  END
>  <ID>  (1) 
conformer_0

$$$$
