
     RDKit          3D

 30 32  0  0  0  0  0  0  0  0999 V2000
   40.1526   37.2558   84.0379 C   0  0  0  0  0  0  0  0  0  0  0  0
   43.3183   36.1265   89.5178 C   0  0  0  0  0  0  0  0  0  0  0  0
   44.9314   37.3307   80.5804 C   0  0  0  0  0  0  0  0  0  0  0  0
   41.0531   36.2373   83.6268 C   0  0  0  0  0  0  0  0  0  0  0  0
   45.0699   38.3750   83.5268 C   0  0  0  0  0  0  0  0  0  0  0  0
   42.0241   37.1491   87.3715 N   0  0  0  0  0  0  0  0  0  0  0  0
   43.9279   41.0185   80.7881 C   0  0  0  0  0  0  0  0  0  0  0  0
   44.4833   39.0089   82.3421 C   0  0  0  0  0  0  0  0  0  0  0  0
   41.5674   36.9576   86.0943 C   0  0  0  0  0  0  0  0  0  0  0  0
   44.8256   36.9347   79.3788 N   0  0  0  0  0  0  0  0  0  0  0  0
   46.7323   35.7918   79.7433 O   0  0  0  0  0  0  0  0  0  0  0  0
   41.9494   36.5201   88.6463 C   0  0  0  0  0  0  0  0  0  0  0  0
   45.6322   35.1284   77.4271 C   0  0  0  0  0  0  0  0  0  0  0  0
   43.7803   39.6865   80.0457 O   0  0  0  0  0  0  0  0  0  0  0  0
   45.8275   35.9085   78.6970 C   0  0  0  0  0  0  0  0  0  0  0  0
   40.5242   37.8412   85.3572 C   0  0  0  0  0  0  0  0  0  0  0  0
   45.8528   36.9387   86.3275 O   0  0  0  0  0  0  0  0  0  0  0  0
   42.8943   37.4207   90.1656 C   0  0  0  0  0  0  0  0  0  0  0  0
   45.7478   36.1953   84.5038 S   0  0  0  0  0  6  0  0  0  0  0  0
   45.6943   34.6976   83.9394 O   0  0  0  0  0  0  0  0  0  0  0  0
   42.4270   38.6881   87.7371 C   0  0  0  0  0  0  0  0  0  0  0  0
   44.3482   38.8555   81.1293 C   0  0  0  0  0  0  0  0  0  0  0  0
   45.2957   36.7140   81.9612 C   0  0  0  0  0  0  0  0  0  0  0  0
   44.9032   39.4202   85.0185 O   0  0  0  0  0  0  0  0  0  0  0  0
   42.0286   36.1398   84.8076 C   0  0  0  0  0  3  0  0  0  0  0  0
   47.0972   36.1987   84.8644 O   0  0  0  0  0  0  0  0  0  0  0  0
   45.7821   38.5712   84.3332 N   0  0  0  0  0  0  0  0  0  0  0  0
   45.5593   36.7874   82.7117 C   0  0  0  0  0  0  0  0  0  0  0  0
   42.9724   35.3061   86.9348 C   0  0  0  0  0  0  0  0  0  0  0  0
   42.8647   38.6814   88.9786 C   0  0  0  0  0  0  0  0  0  0  0  0
  4  1  2  0
  8  5  2  0
  9  6  1  0
 10  3  1  0
 12  2  1  0
 12  6  1  0
 14  7  1  0
 15 10  1  0
 15 11  2  0
 15 13  1  0
 16  1  1  0
 16  9  1  0
 18  2  1  0
 19 17  1  0
 20 19  1  0
 21  6  1  0
 22  3  2  0
 22  8  1  0
 22 14  1  0
 23  3  1  0
 25  4  1  0
 25  9  1  0
 25 19  1  0
 26 19  1  0
 27  5  1  0
 27 24  1  0
 28  5  1  0
 28 19  1  0
 28 23  2  0
 29  9  1  0
 30 18  1  0
 30 21  1  0
M  RAD  1  25   2
M  END
>  <ID>  (1) 
conformer_0

$$$$
