
     RDKit          3D

 26 27  0  0  0  0  0  0  0  0999 V2000
   40.8569   38.1088   85.3375 C   0  0  0  0  0  0  0  0  0  0  0  0
   45.1744   36.7614   81.2572 C   0  0  0  0  0  0  0  0  0  0  0  0
   41.9134   36.2220   85.1376 C   0  0  0  0  0  0  0  0  0  0  0  0
   45.7063   35.8994   77.1907 C   0  0  0  0  0  0  0  0  0  0  0  0
   43.6184   38.6305   89.0348 C   0  0  0  0  0  0  0  0  0  0  0  0
   41.6607   37.1549   86.2601 C   0  0  0  0  0  0  0  0  0  0  0  0
   45.0678   37.9036   83.0770 C   0  0  0  0  0  0  0  0  0  0  0  0
   44.1907   39.4585   79.8797 O   0  0  0  0  0  0  0  0  0  0  0  0
   41.9814   37.6730   87.4863 N   0  0  0  0  0  0  0  0  0  0  0  0
   45.1421   35.4457   86.6953 C   0  0  0  0  0  0  0  0  0  0  0  0
   46.4531   35.7823   79.7486 O   0  0  0  0  0  0  0  0  0  0  0  0
   44.9623   36.5275   82.2640 C   0  0  0  0  0  3  0  0  0  0  0  0
   45.6583   38.6343   84.6569 O   0  0  0  0  0  0  0  0  0  0  0  0
   41.5198   37.4939   88.7796 C   0  0  0  0  0  0  0  0  0  0  0  0
   45.7294   35.9328   78.5756 C   0  0  0  0  0  0  0  0  0  0  0  0
   44.8163   36.9605   79.3319 N   0  0  0  0  0  0  0  0  0  0  0  0
   42.8058   38.9006   87.6233 C   0  0  0  0  0  0  0  0  0  0  0  0
   40.2659   37.5242   84.1133 C   0  0  0  0  0  0  0  0  0  0  0  0
   44.1818   40.8081   80.1079 C   0  0  0  0  0  0  0  0  0  0  0  0
   44.5044   38.9405   82.1220 C   0  0  0  0  0  3  0  0  0  0  0  0
   44.4940   38.3405   80.8353 C   0  0  0  0  0  0  0  0  0  0  0  0
   45.5700   35.9530   85.3373 O   0  0  0  0  0  0  0  0  0  0  0  0
   40.9521   36.2561   83.8618 C   0  0  0  0  0  0  0  0  0  0  0  0
   46.0756   35.4587   81.4805 F   0  0  0  0  0  0  0  0  0  0  0  0
   42.3414   37.5079   89.8060 C   0  0  0  0  0  0  0  0  0  0  0  0
   43.7550   39.5193   85.3814 C   0  0  0  0  0  0  0  0  0  0  0  0
  6  1  2  0
  6  3  1  0
  9  6  1  0
 12  2  1  0
 12  7  1  0
 13  7  1  0
 14  9  1  0
 15  4  1  0
 15 11  2  0
 16  2  1  0
 16 15  1  0
 17  9  1  0
 18  1  1  0
 19  8  1  0
 20  7  1  0
 21  2  1  0
 21  8  1  0
 21 20  1  0
 22  7  1  0
 22 10  1  0
 23  3  2  0
 23 18  1  0
 24  2  1  0
 25  5  1  0
 25 14  1  0
 26  5  1  0
 26 13  1  0
M  RAD  2  12   2  20   2
M  END
>  <ID>  (1) 
conformer_0

$$$$
