
     RDKit          3D

 24 25  0  0  0  0  0  0  0  0999 V2000
   41.9805   36.1239   84.4470 C   0  0  0  0  0  0  0  0  0  0  0  0
   43.4835   36.6619   89.3217 C   0  0  0  0  0  0  0  0  0  0  0  0
   44.7340   38.6265   81.3819 C   0  0  0  0  0  0  0  0  0  0  0  0
   40.8001   38.1404   85.3498 C   0  0  0  0  0  0  0  0  0  0  0  0
   45.6864   35.7383   77.3933 C   0  0  0  0  0  0  0  0  0  0  0  0
   42.0943   37.1949   85.6162 C   0  0  0  0  0  0  0  0  0  0  0  0
   42.6977   37.3003   86.7629 N   0  0  0  0  0  0  0  0  0  0  0  0
   44.0207   40.9971   80.5676 C   0  0  0  0  0  0  0  0  0  0  0  0
   45.3965   37.3734   83.0019 C   0  0  0  0  0  0  0  0  0  0  0  0
   44.2488   39.6789   80.2688 O   0  0  0  0  0  0  0  0  0  0  0  0
   42.5333   36.3504   87.9799 C   0  0  0  0  0  0  0  0  0  0  0  0
   40.0591   37.6057   84.2880 C   0  0  0  0  0  0  0  0  0  0  0  0
   45.6379   36.3859   81.5926 C   0  0  0  0  0  0  0  0  0  0  0  0
   44.0207   39.7569   85.3955 O   0  0  0  0  0  0  0  0  0  0  0  0
   43.3151   37.6476   89.2810 C   0  0  0  0  0  0  0  0  0  0  0  0
   45.2325   35.3715   84.6043 O   0  0  0  0  0  1  0  0  0  0  0  0
   45.5017   36.6345   84.3644 S   0  0  0  0  0  4  0  0  0  0  0  0
   45.7007   35.9733   78.6623 C   0  0  0  0  0  0  0  0  0  0  0  0
   44.8350   37.0505   79.2721 N   0  0  0  0  0  0  0  0  0  0  0  0
   44.7035   38.8654   82.3973 C   0  0  0  0  0  0  0  0  0  0  0  0
   43.0567   38.6396   87.3067 C   0  0  0  0  0  0  0  0  0  0  0  0
   45.1964   37.1475   80.9503 C   0  0  0  0  0  0  0  0  0  0  0  0
   40.7109   36.4451   83.6308 C   0  0  0  0  0  0  0  0  0  0  0  0
   46.8486   36.7075   84.9089 O   0  0  0  0  0  1  0  0  0  0  0  0
  6  1  2  0
  6  4  1  0
  7  6  1  0
 10  3  1  0
 10  8  1  0
 11  2  1  0
 11  7  1  0
 12  4  2  0
 13  9  2  0
 15  2  1  0
 17  1  1  0
 17  9  1  0
 17 16  1  0
 18  5  2  3
 19 18  1  0
 20  3  2  0
 20  9  1  0
 21  7  1  0
 21 14  1  0
 22  3  1  0
 22 13  1  0
 22 19  1  0
 23  1  1  0
 23 12  1  0
 24 17  1  0
M  RAD  2  16   2  24   2
M  END
>  <ID>  (1) 
conformer_0

$$$$
