
     RDKit          3D

 27 27  0  0  0  0  0  0  0  0999 V2000
   42.0673   36.1631   84.8944 C   0  0  0  0  0  0  0  0  0  0  0  0
   44.5517   38.8774   81.8792 C   0  0  0  0  0  0  0  0  0  0  0  0
   42.8453   37.9497   90.1861 C   0  0  0  0  0  0  0  0  0  0  0  0
   40.9788   36.1557   83.7507 C   0  0  0  0  0  0  0  0  0  0  0  0
   45.2070   36.7375   81.7709 C   0  0  0  0  0  0  0  0  0  0  0  0
   45.2107   37.7236   83.1403 C   0  0  1  0  0  0  0  0  0  0  0  0
   42.0263   36.3757   88.6833 C   0  0  0  0  0  0  0  0  0  0  0  0
   45.4842   35.9633   78.2122 C   0  0  0  0  0  0  0  0  0  0  0  0
   46.4377   35.8558   78.9093 O   0  0  0  0  0  0  0  0  0  0  0  0
   43.9618   41.0122   80.6143 C   0  0  0  0  0  0  0  0  0  0  0  0
   44.7859   39.2109   83.9097 O   0  0  0  0  0  0  0  0  0  0  0  0
   43.9844   39.6743   80.3477 O   0  0  0  0  0  0  0  0  0  0  0  0
   45.2111   35.3689   76.7083 C   0  0  0  0  0  0  0  0  0  0  0  0
   44.7169   37.0551   79.3259 N   0  0  0  0  0  0  0  0  0  0  0  0
   45.5066   34.8920   84.3430 O   0  0  0  0  0  1  0  0  0  0  0  0
   41.9882   37.2171   85.7509 C   0  0  1  0  0  0  0  0  0  0  0  0
   41.0843   38.1331   85.1163 C   0  0  0  0  0  0  0  0  0  0  0  0
   45.6965   35.9534   84.4497 S   0  0  0  0  0  4  0  0  0  0  0  0
   43.7546   39.4505   86.2565 O   0  0  0  0  0  0  0  0  0  0  0  0
   43.1403   36.5928   89.5321 C   0  0  1  0  0  0  0  0  0  0  0  0
   42.2366   38.3034   87.9228 C   0  0  0  0  0  0  0  0  0  0  0  0
   44.0625   35.1294   86.6165 C   0  0  0  0  0  0  0  0  0  0  0  0
   44.7522   37.7398   80.5761 C   0  0  0  0  0  0  0  0  0  0  0  0
   42.4661   37.1936   87.3341 N   0  0  0  0  0  0  0  0  0  0  0  0
   46.8996   36.4203   84.8078 O   0  0  0  0  0  1  0  0  0  0  0  0
   40.2124   37.4734   84.0799 C   0  0  0  0  0  0  0  0  0  0  0  0
   43.2499   39.3763   85.5885 C   0  0  0  0  0  0  0  0  0  0  0  0
  4  1  2  3
  6  2  1  0
  6  5  1  0
  9  8  2  0
  6 11  1  1
 12  2  1  0
 12 10  1  0
 13  8  1  0
 14  8  1  0
 16  1  1  0
 16 17  1  1
 18  6  1  0
 18 15  1  0
 20  3  1  6
 20  7  1  0
 22 18  1  0
 22 20  1  0
 23  2  1  0
 23  5  2  0
 23 14  1  0
 24  7  1  0
 24 16  1  0
 24 21  1  0
 25 18  1  0
 26  4  1  0
 27 19  2  0
 27 26  1  0
M  RAD  2  15   2  25   2
M  END
>  <ID>  (1) 
conformer_0

$$$$
