
     RDKit          3D

 30 31  0  0  0  0  0  0  0  0999 V2000
   44.5273   38.6971   81.1689 C   0  0  0  0  0  0  0  0  0  0  0  0
   40.3371   36.6387   83.6251 C   0  0  0  0  0  0  0  0  0  0  0  0
   40.7950   38.0396   85.5888 C   0  0  0  0  0  0  0  0  0  0  0  0
   42.1498   38.4205   89.9599 C   0  0  0  0  0  0  0  0  0  0  0  0
   45.6052   37.2363   82.9331 C   0  0  0  0  0  0  0  0  0  0  0  0
   44.1607   39.7271   85.1690 C   0  0  0  0  0  0  0  0  0  0  0  0
   41.7491   38.4144   88.6244 C   0  0  0  0  0  0  0  0  0  0  0  0
   45.3943   36.5060   81.6953 C   0  0  0  0  0  0  0  0  0  0  0  0
   42.0847   37.7052   87.5856 N   0  0  0  0  0  0  0  0  0  0  0  0
   41.8655   36.1894   85.4851 C   0  0  0  0  0  0  0  0  0  0  0  0
   45.7766   36.0022   78.0903 C   0  0  0  0  0  0  0  0  0  0  0  0
   47.1488   36.5123   84.8361 O   0  0  0  0  0  0  0  0  0  0  0  0
   41.6878   37.1288   86.2348 C   0  0  0  0  0  0  0  0  0  0  0  0
   46.5866   35.8245   78.9875 O   0  0  0  0  0  0  0  0  0  0  0  0
   44.0722   39.0638   80.0433 O   0  0  0  0  0  0  0  0  0  0  0  0
   45.8830   36.3040   84.5473 S   0  0  0  0  0  6  0  0  0  0  0  0
   45.6599   36.1982   76.5857 C   0  0  0  0  0  0  0  0  0  0  0  0
   45.0306   37.0017   78.8590 N   0  0  0  0  0  0  0  0  0  0  0  0
   44.6355   35.1390   86.4045 C   0  0  0  0  0  0  0  0  0  0  0  0
   45.7248   38.4539   84.6791 O   0  0  0  0  0  0  0  0  0  0  0  0
   43.1095   36.6566   89.7672 C   0  0  0  0  0  0  0  0  0  0  0  0
   45.6623   34.9932   84.2855 O   0  0  0  0  0  0  0  0  0  0  0  0
   44.9582   37.4684   80.5512 C   0  0  0  0  0  0  0  0  0  0  0  0
   43.1592   39.2738   86.9332 C   0  0  0  0  0  0  0  0  0  0  0  0
   39.9927   37.6541   84.4529 C   0  0  0  0  0  0  0  0  0  0  0  0
   44.4018   39.0620   82.3414 C   0  0  0  0  0  0  0  0  0  0  0  0
   45.0151   38.5168   83.2551 C   0  0  0  0  0  0  0  0  0  0  0  0
   41.3429   35.7718   84.1203 C   0  0  0  0  0  0  0  0  0  0  0  0
   44.9086   39.0794   86.2570 O   0  0  0  0  0  0  0  0  0  0  0  0
   42.0266   36.3307   88.6696 C   0  0  0  0  0  0  0  0  0  0  0  0
  7  4  1  0
  8  5  1  0
  9  7  1  0
 13  3  2  0
 13  9  1  0
 13 10  1  0
 14 11  2  0
 15  1  2  0
 16  5  1  0
 16  6  1  0
 16 12  1  0
 17 11  1  0
 18 11  1  0
 19 16  1  0
 22 16  1  0
 23  1  1  0
 23  8  1  0
 23 18  1  0
 24  7  1  0
 25  2  2  0
 25  3  1  0
 26  1  1  0
 27  5  1  0
 27 20  1  0
 27 26  1  0
 28  2  1  0
 28 10  2  0
 29  6  1  0
 29 24  1  0
 30  9  1  0
 30 21  1  0
M  END
>  <ID>  (1) 
conformer_0

$$$$
