
     RDKit          3D

 27 29  0  0  0  0  0  0  0  0999 V2000
   41.9782   36.1178   84.7962 C   0  0  0  0  0  0  0  0  0  0  0  0
   45.0191   38.3432   83.3055 C   0  0  0  0  0  0  0  0  0  0  0  0
   42.7259   38.3707   89.5327 C   0  0  0  0  0  0  0  0  0  0  0  0
   40.0842   37.1822   84.1410 C   0  0  0  0  0  0  0  0  0  0  0  0
   44.9409   37.3695   80.6314 C   0  0  0  0  0  0  0  0  0  0  0  0
   45.4286   36.3590   81.4482 C   0  0  0  0  0  0  0  0  0  0  0  0
   43.9601   41.1373   80.3618 C   0  0  0  0  0  0  0  0  0  0  0  0
   41.8000   36.9574   85.9895 C   0  0  0  0  0  0  0  0  0  0  0  0
   44.1356   39.7364   80.3301 O   0  0  0  0  0  0  0  0  0  0  0  0
   41.8712   36.6383   88.5192 C   0  0  0  0  0  0  0  0  0  0  0  0
   45.0589   36.9547   79.1144 N   0  0  0  0  0  0  0  0  0  0  0  0
   40.6783   37.7827   85.3601 C   0  0  0  0  0  0  0  0  0  0  0  0
   45.8432   35.8325   78.3130 C   0  0  0  0  0  0  0  0  0  0  0  0
   42.2214   37.3066   87.2629 N   0  0  0  0  0  0  0  0  0  0  0  0
   44.9346   39.4247   84.4607 O   0  0  0  0  0  0  0  0  0  0  0  0
   46.7087   35.6904   78.9027 O   0  0  0  0  0  0  0  0  0  0  0  0
   45.6653   36.0975   84.4916 S   0  0  0  0  0  3  0  0  0  0  0  0
   46.3616   35.9478   84.9282 O   0  0  0  0  0  1  0  0  0  0  0  0
   44.1698   35.4645   86.3285 C   0  0  0  0  0  0  0  0  0  0  0  0
   45.4170   35.3426   77.0994 C   0  0  0  0  0  0  0  0  0  0  0  0
   42.3944   38.8695   87.9246 C   0  0  0  0  0  0  0  0  0  0  0  0
   42.6611   36.4411   89.5307 C   0  0  0  0  0  0  0  0  0  0  0  0
   45.3451   36.7598   82.9187 C   0  0  0  0  0  0  0  0  0  0  0  0
   44.4355   38.5253   82.3024 C   0  0  0  0  0  0  0  0  0  0  0  0
   40.9463   36.0672   83.6349 C   0  0  0  0  0  0  0  0  0  0  0  0
   43.6354   40.0777   85.6023 C   0  0  0  0  0  0  0  0  0  0  0  0
   44.4638   38.9212   81.3228 C   0  0  0  0  0  0  0  0  0  0  0  0
  6  5  2  0
  8  1  2  0
  9  7  1  0
 11  5  1  0
 12  4  2  0
 12  8  1  0
 13 11  1  0
 14  8  1  0
 14 10  1  0
 15  2  1  0
 16 13  2  0
 18 17  1  0
 19 17  1  0
 20 13  1  0
 21  3  1  0
 21 14  1  0
 22  3  1  0
 22 10  1  0
 23  2  2  0
 23  6  1  0
 23 17  1  0
 24  2  1  0
 25  1  1  0
 25  4  1  0
 26 15  1  0
 26 21  1  0
 27  5  1  0
 27  9  1  0
 27 24  2  0
M  RAD  2  17   2  18   2
M  END
>  <ID>  (1) 
conformer_0

$$$$
