
     RDKit          3D

 29 31  0  0  0  0  0  0  0  0999 V2000
   41.2239   35.9382   83.4695 C   0  0  0  0  0  0  0  0  0  0  0  0
   42.9342   37.9989   89.6134 C   0  0  0  0  0  0  0  0  0  0  0  0
   45.1802   37.1430   80.2505 C   0  0  0  0  0  0  0  0  0  0  0  0
   40.4818   37.8256   84.8043 C   0  0  0  0  0  0  0  0  0  0  0  0
   42.8474   35.9122   87.6532 C   0  0  0  0  0  0  0  0  0  0  0  0
   45.2942   35.6604   76.6511 C   0  0  0  0  0  0  0  0  0  0  0  0
   42.1887   37.2091   87.3013 N   0  0  0  0  0  0  0  0  0  0  0  0
   46.7592   35.9652   79.0566 O   0  0  0  0  0  0  0  0  0  0  0  0
   44.9585   38.4634   82.9657 C   0  0  0  0  0  0  0  0  0  0  0  0
   44.0527   39.9315   80.5704 O   0  0  0  0  0  0  0  0  0  0  0  0
   45.7654   35.9899   78.0816 C   0  0  0  0  0  0  0  0  0  0  0  0
   45.8696   36.8351   84.2062 S   0  0  0  0  0  6  0  0  0  0  0  0
   44.9843   36.8284   78.7586 N   0  0  0  0  0  0  0  0  0  0  0  0
   45.3649   35.2004   84.4429 O   0  0  0  0  0  0  0  0  0  0  0  0
   45.8042   36.3402   81.5236 C   0  0  0  0  0  0  0  0  0  0  0  0
   40.2119   36.8174   83.7150 C   0  0  0  0  0  0  0  0  0  0  0  0
   45.7516   38.5496   85.0863 O   0  0  0  0  0  0  0  0  0  0  0  0
   41.8048   36.9375   85.9068 C   0  0  0  0  0  0  0  0  0  0  0  0
   43.7348   41.1016   81.1801 C   0  0  0  0  0  0  0  0  0  0  0  0
   42.7798   38.7836   87.1802 C   0  0  0  0  0  0  0  0  0  0  0  0
   43.1823   36.7714   89.5881 C   0  0  0  0  0  0  0  0  0  0  0  0
   44.3482   38.9397   81.0122 C   0  0  0  0  0  0  0  0  0  0  0  0
   47.1374   36.4542   84.3930 O   0  0  0  0  0  0  0  0  0  0  0  0
   44.5669   38.8591   82.5856 C   0  0  0  0  0  0  0  0  0  0  0  0
   42.1542   37.3769   84.8478 C   0  0  0  0  0  0  0  0  0  0  0  0
   41.5829   37.3591   88.7072 C   0  0  0  0  0  0  0  0  0  0  0  0
   44.3407   38.0264   80.1699 C   0  0  0  0  0  0  0  0  0  0  0  0
   41.7534   35.6893   85.1153 C   0  0  0  0  0  0  0  0  0  0  0  0
   45.5110   37.0670   82.3580 C   0  0  0  0  0  0  0  0  0  0  0  0
  7  5  1  0
 11  6  1  0
 11  8  2  0
 12  9  1  0
 13  3  1  0
 13 11  1  0
 14 12  1  0
 15  3  2  0
 16  1  2  0
 16  4  1  0
 17 12  1  0
 18  7  1  0
 19 10  1  0
 20  2  1  0
 21  2  1  0
 22 10  1  0
 23 12  1  0
 24  9  1  0
 24 22  2  0
 25  4  2  0
 25 12  1  0
 25 18  1  0
 26  2  1  0
 26  7  1  0
 27  3  1  0
 27 22  1  0
 28  1  1  0
 28 18  2  0
 29  9  2  0
 29 12  1  0
 29 15  1  0
M  END
>  <ID>  (1) 
conformer_0

$$$$
