
     RDKit          3D

 26 27  0  0  0  0  0  0  0  0999 V2000
   40.1498   37.5389   84.2631 C   0  0  0  0  0  0  0  0  0  0  0  0
   44.5603   38.7823   81.2295 C   0  0  0  0  0  0  0  0  0  0  0  0
   42.8924   37.8582   89.7688 C   0  0  0  0  0  0  0  0  0  0  0  0
   40.6793   37.9888   85.5181 C   0  0  0  0  0  0  0  0  0  0  0  0
   45.5598   36.8782   82.8366 C   0  0  0  0  0  0  0  0  0  0  0  0
   45.8771   36.0088   78.5048 C   0  0  0  0  0  0  0  0  0  0  0  0
   42.0751   38.8852   88.1956 C   0  0  0  0  0  0  0  0  0  0  0  0
   44.1825   39.6516   80.3756 O   0  0  0  0  0  0  0  0  0  0  0  0
   41.7431   37.0370   86.1840 C   0  0  0  0  0  0  0  0  0  0  0  0
   43.9292   40.9327   81.0408 C   0  0  0  0  0  0  0  0  0  0  0  0
   45.4465   36.7193   81.7184 C   0  0  0  0  0  0  0  0  0  0  0  0
   46.8499   35.8401   79.2983 O   0  0  0  0  0  0  0  0  0  0  0  0
   44.9161   37.0092   79.3221 N   0  0  0  0  0  0  0  0  0  0  0  0
   45.4880   35.7253   77.1086 C   0  0  0  0  0  0  0  0  0  0  0  0
   42.0529   36.3012   85.0159 C   0  0  0  0  0  0  0  0  0  0  0  0
   42.1799   37.1904   87.2534 N   0  0  0  0  0  0  0  0  0  0  0  0
   43.4818   35.3643   87.0186 C   0  0  0  0  0  0  0  0  0  0  0  0
   44.7901   35.4431   85.0298 O   0  0  0  0  0  0  0  0  0  0  0  0
   44.8310   39.2890   84.5523 O   0  0  0  0  0  0  0  0  0  0  0  0
   45.0974   37.3798   80.6063 C   0  0  0  0  0  0  0  0  0  0  0  0
   43.2512   36.5929   89.4389 C   0  0  0  0  0  0  0  0  0  0  0  0
   45.5376   36.5079   84.4283 S   0  0  0  0  0  4  0  0  0  0  0  0
   46.9021   36.3536   84.9626 O   0  0  0  0  0  0  0  0  0  0  0  0
   45.0796   38.4217   83.0623 C   0  0  0  0  0  0  0  0  0  0  0  0
   40.9504   36.3922   83.8739 C   0  0  0  0  0  0  0  0  0  0  0  0
   41.8388   36.8562   88.5777 C   0  0  0  0  0  0  0  0  0  0  0  0
  4  1  2  0
  8  2  1  0
  9  4  1  0
 10  8  1  0
 11  5  2  0
 12  6  2  0
 13  6  1  0
 14  6  1  0
 15  9  2  0
 16  7  1  0
 16  9  1  0
 18 17  1  0
 20  2  2  0
 20 11  1  0
 20 13  1  0
 21  3  1  0
 21 17  1  0
 22  5  1  0
 22 18  1  0
 23 22  1  0
 24  2  1  0
 24  5  1  0
 24 19  1  0
 25  1  1  0
 25 15  1  0
 26 16  1  0
 26 21  1  0
M  END
>  <ID>  (1) 
conformer_0

$$$$
