
     RDKit          3D

 28 30  0  0  0  0  0  0  0  0999 V2000
   41.7643   36.1344   84.8113 C   0  0  0  0  0  0  0  0  0  0  0  0
   45.5361   37.0395   82.9887 C   0  0  0  0  0  0  0  0  0  0  0  0
   43.3161   36.3309   89.5098 C   0  0  0  0  0  0  0  0  0  0  0  0
   40.7528   37.9489   85.3226 C   0  0  0  0  0  0  0  0  0  0  0  0
   45.3530   37.0661   81.7046 C   0  0  0  0  0  0  0  0  0  0  0  0
   45.1356   35.5951   76.6805 C   0  0  0  0  0  0  0  0  0  0  0  0
   44.8418   37.7766   80.6174 C   0  0  0  0  0  3  0  0  0  0  0  0
   41.6567   37.0690   86.0264 C   0  0  0  0  0  0  0  0  0  0  0  0
   42.2366   37.2054   87.2294 N   0  0  0  0  0  0  0  0  0  0  0  0
   47.0940   36.5057   84.9314 O   0  0  0  0  0  0  0  0  0  0  0  0
   43.9783   40.9628   80.3354 C   0  0  0  0  0  0  0  0  0  0  0  0
   43.1874   35.1288   87.0255 C   0  0  0  0  0  0  0  0  0  0  0  0
   45.6248   36.3632   77.9913 C   0  0  0  0  0  0  0  0  0  0  0  0
   44.4800   39.4151   84.6805 O   0  0  0  0  0  0  0  0  0  0  0  0
   46.0374   36.3242   84.3542 S   0  0  0  0  0  4  0  0  0  0  0  0
   42.0726   36.6937   88.5930 C   0  0  0  0  0  0  0  0  0  0  0  0
   44.9180   37.0621   78.9125 N   0  0  0  0  0  0  0  0  0  0  0  0
   43.9225   39.3179   80.2151 O   0  0  0  0  0  0  0  0  0  0  0  0
   46.5433   35.8469   78.8466 O   0  0  0  0  0  0  0  0  0  0  0  0
   40.7740   36.2527   83.6334 C   0  0  0  0  0  0  0  0  0  0  0  0
   45.8750   34.9294   83.7725 O   0  0  0  0  0  0  0  0  0  0  0  0
   42.6177   38.7295   87.5684 C   0  0  0  0  0  0  0  0  0  0  0  0
   43.0166   37.7117   89.6016 C   0  0  0  0  0  0  0  0  0  0  0  0
   44.7992   38.6165   83.3758 C   0  0  0  0  0  0  0  0  0  0  0  0
   43.8515   40.1130   82.5564 O   0  0  0  0  0  0  0  0  0  0  0  0
   40.0439   37.4292   84.0806 C   0  0  0  0  0  0  0  0  0  0  0  0
   43.4454   39.5749   85.2422 C   0  0  0  0  0  0  0  0  0  0  0  0
   44.3316   39.1084   81.7211 C   0  0  0  0  0  0  0  0  0  0  0  0
  5  2  2  0
  7  5  1  0
  8  1  2  0
  8  4  1  0
  9  8  1  0
 12  3  1  0
 13  6  1  0
 15  2  1  0
 15 10  1  0
 16  3  1  0
 16  9  1  0
 17  7  1  0
 17 13  1  0
 18 11  1  0
 19 13  2  0
 20  1  1  0
 21 15  1  0
 22  9  1  0
 23  3  1  0
 23 16  1  0
 24  2  1  0
 24 14  1  0
 26  4  2  0
 26 20  1  0
 27  4  1  0
 27 14  1  0
 28  7  1  0
 28 18  1  0
 28 24  1  0
 28 25  1  0
M  RAD  1   7   2
M  END
>  <ID>  (1) 
conformer_0

$$$$
