
     RDKit          3D

 28 30  0  0  0  0  0  0  0  0999 V2000
   41.6421   35.8751   85.2097 C   0  0  0  0  0  0  0  0  0  0  0  0
   44.3501   38.9571   81.8129 C   0  0  0  0  0  3  0  0  0  0  0  0
   43.6818   36.3466   89.5129 C   0  0  0  0  0  0  0  0  0  0  0  0
   40.2415   37.6690   84.5793 C   0  0  0  0  0  0  0  0  0  0  0  0
   40.9423   37.8443   85.9122 C   0  0  0  0  0  0  0  0  0  0  0  0
   45.4515   35.8055   77.1433 C   0  0  0  0  0  0  0  0  0  0  0  0
   44.9576   37.4992   83.1805 C   0  0  0  0  0  0  0  0  0  0  0  0
   45.0188   36.4730   81.7197 C   0  0  0  0  0  0  0  0  0  0  0  0
   45.8109   36.1452   78.5649 C   0  0  0  0  0  0  0  0  0  0  0  0
   44.0067   40.0999   81.1882 O   0  0  0  0  0  0  0  0  0  0  0  0
   42.1159   36.4891   89.0504 C   0  0  0  0  0  0  0  0  0  0  0  0
   46.5932   35.9771   79.3704 O   0  0  0  0  0  0  0  0  0  0  0  0
   44.2998   39.7068   84.3157 O   0  0  0  0  0  0  0  0  0  0  0  0
   45.5425   36.2960   84.5749 S   0  0  0  0  0  6  0  0  0  0  0  0
   45.5773   37.5401   85.9105 O   0  0  0  0  0  0  0  0  0  0  0  0
   43.9500   41.0215   80.5984 C   0  0  0  0  0  0  0  0  0  0  0  0
   41.7720   36.8356   86.3015 C   0  0  0  0  0  0  0  0  0  0  0  0
   43.4678   35.3211   87.0357 C   0  0  0  0  0  0  0  0  0  0  0  0
   45.3530   34.9515   84.2392 O   0  0  0  0  0  0  0  0  0  0  0  0
   44.8214   37.6579   80.6723 C   0  0  0  0  0  0  0  0  0  0  0  0
   43.5990   40.6807   83.7159 C   0  0  0  0  0  0  0  0  0  0  0  0
   40.6845   36.3753   84.1291 C   0  0  0  0  0  0  0  0  0  0  0  0
   44.4649   38.8096   79.6309 O   0  0  0  0  0  0  0  0  0  0  0  0
   42.3876   36.9063   87.6077 N   0  0  0  0  0  0  0  0  0  0  0  0
   44.4293   38.4596   82.7479 C   0  0  0  0  0  0  0  0  0  0  0  0
   43.2867   37.5935   89.8470 C   0  0  0  0  0  0  0  0  0  0  0  0
   47.0422   36.3631   84.7547 O   0  0  0  0  0  0  0  0  0  0  0  0
   41.9446   38.4015   87.9249 C   0  0  0  0  0  0  0  0  0  0  0  0
  5  4  2  0
  8  7  2  0
  9  6  1  0
 10  2  1  0
 11  3  1  0
 12  9  2  0
 14  7  1  0
 15 14  1  0
 16 10  1  0
 17  1  2  0
 17  5  1  0
 18  3  1  0
 18 14  1  0
 19 14  1  0
 20  2  1  0
 20  8  1  0
 20  9  1  0
 21 13  1  0
 22  1  1  0
 22  4  1  0
 23 20  1  0
 24 11  1  0
 24 17  1  0
 25  2  1  0
 25  7  1  0
 25 13  1  0
 26  3  1  0
 26 11  1  0
 27 14  1  0
 28 24  1  0
M  RAD  1   2   2
M  END
>  <ID>  (1) 
conformer_0

$$$$
