
     RDKit          3D

 29 31  0  0  0  0  0  0  0  0999 V2000
   40.1734   37.3279   84.0694 C   0  0  0  0  0  0  0  0  0  0  0  0
   42.8231   37.9834   89.5744 C   0  0  0  0  0  0  0  0  0  0  0  0
   45.1377   38.2034   83.2974 C   0  0  0  0  0  0  0  0  0  0  0  0
   40.9308   37.9230   85.1825 C   0  0  0  0  0  0  0  0  0  0  0  0
   41.8061   36.8030   85.9066 C   0  0  0  0  0  0  0  0  0  0  0  0
   44.4821   38.6978   81.1487 C   0  0  0  0  0  0  0  0  0  0  0  0
   44.1782   39.5977   80.2066 O   0  0  0  0  0  0  0  0  0  0  0  0
   42.2438   36.9498   87.1600 N   0  0  0  0  0  0  0  0  0  0  0  0
   45.6572   36.2790   78.2701 C   0  0  0  0  0  0  0  0  0  0  0  0
   43.9628   40.8275   80.6104 C   0  0  0  0  0  0  0  0  0  0  0  0
   46.5860   35.7451   79.1697 O   0  0  0  0  0  0  0  0  0  0  0  0
   42.0537   36.8790   88.6170 C   0  0  0  0  0  0  0  0  0  0  0  0
   44.9509   37.0734   79.1950 N   0  0  0  0  0  0  0  0  0  0  0  0
   44.4489   38.8437   82.5112 C   0  0  0  0  0  0  0  0  0  0  0  0
   45.4467   36.2230   76.7058 C   0  0  0  0  0  0  0  0  0  0  0  0
   45.9233   38.5967   85.1897 O   0  0  0  0  0  0  0  0  0  0  0  0
   45.3624   35.0005   84.7697 O   0  0  0  0  0  0  0  0  0  0  0  0
   42.6853   38.9706   87.5968 C   0  0  0  0  0  0  0  0  0  0  0  0
   41.8474   35.8083   84.7710 C   0  0  0  0  0  0  0  0  0  0  0  0
   45.7266   36.7123   84.4835 S   0  0  0  0  0  6  0  0  0  0  0  0
   45.3695   36.4260   81.6887 C   0  0  0  0  0  0  0  0  0  0  0  0
   42.6252   36.5901   89.8207 C   0  0  0  0  0  0  0  0  0  0  0  0
   44.3339   39.7277   85.9759 O   0  0  0  0  0  0  0  0  0  0  0  0
   44.0378   39.9529   84.8121 C   0  0  0  0  0  0  0  0  0  0  0  0
   45.0062   37.2361   80.6568 C   0  0  0  0  0  0  0  0  0  0  0  0
   45.4705   36.6322   82.7012 C   0  0  0  0  0  0  0  0  0  0  0  0
   46.8110   36.2563   85.1787 O   0  0  0  0  0  0  0  0  0  0  0  0
   40.7664   36.0942   83.6253 C   0  0  0  0  0  0  0  0  0  0  0  0
   43.4087   35.5157   87.3285 C   0  0  0  0  0  0  0  0  0  0  0  0
  4  1  2  0
  5  4  1  0
  7  6  1  0
  8  5  1  0
 10  7  1  0
 11  9  2  0
 12  2  1  0
 12  8  1  0
 13  9  1  0
 14  3  2  0
 14  6  1  0
 15  9  1  0
 18  2  1  0
 19  5  2  0
 20 16  1  0
 20 17  1  0
 22  2  1  0
 22 12  1  0
 24 18  1  0
 24 20  1  0
 24 23  1  0
 25  6  2  0
 25 13  1  0
 25 21  1  0
 26  3  1  0
 26 20  1  0
 26 21  2  0
 27 20  1  0
 28  1  1  0
 28 19  1  0
 29  8  1  0
M  END
>  <ID>  (1) 
conformer_0

$$$$
