
     RDKit          3D

 25 27  0  0  0  0  0  0  0  0999 V2000
   42.7905   38.0750   89.3100 C   0  0  0  0  0  0  0  0  0  0  0  0
   40.6708   36.3536   83.7905 C   0  0  0  0  0  0  0  0  0  0  0  0
   44.5367   38.5156   81.4860 C   0  0  0  0  0  0  0  0  0  0  0  0
   40.9564   38.2927   85.1233 C   0  0  0  0  0  0  0  0  0  0  0  0
   45.2531   36.4248   81.7192 C   0  0  0  0  0  0  0  0  0  0  0  0
   45.0631   37.2063   83.2940 C   0  0  0  0  0  0  0  0  0  0  0  0
   42.2827   36.3848   88.0461 C   0  0  0  0  0  0  0  0  0  0  0  0
   44.1306   40.8511   80.2565 C   0  0  0  0  0  0  0  0  0  0  0  0
   44.2973   39.4105   80.2433 O   0  0  0  0  0  0  0  0  0  0  0  0
   42.0555   37.3672   85.5774 C   0  0  0  0  0  0  0  0  0  0  0  0
   43.9124   39.4244   85.4513 C   0  0  0  0  0  0  0  0  0  0  0  0
   42.5815   37.6409   86.7532 N   0  0  0  0  0  0  0  0  0  0  0  0
   45.2082   35.0559   84.6954 O   0  0  0  0  0  0  0  0  0  0  0  0
   45.7192   35.9875   78.4238 C   0  0  0  0  0  0  0  0  0  0  0  0
   44.5169   38.5627   82.5181 C   0  0  0  0  0  0  0  0  0  0  0  0
   45.5898   35.9530   77.1716 C   0  0  0  0  0  0  0  0  0  0  0  0
   41.8694   36.1583   84.7427 C   0  0  0  0  0  0  0  0  0  0  0  0
   45.7576   36.3784   79.4490 O   0  0  0  0  0  0  0  0  0  0  0  0
   45.2173   38.5584   84.9016 O   0  0  0  0  0  0  0  0  0  0  0  0
   43.4621   36.6371   89.1838 C   0  0  0  0  0  0  0  0  0  0  0  0
   45.5309   36.3320   84.5788 S   0  0  0  0  0  4  0  0  0  0  0  0
   46.8815   36.5481   84.9264 O   0  0  0  0  0  0  0  0  0  0  0  0
   44.9039   37.3750   80.5466 C   0  0  0  0  0  0  0  0  0  0  0  0
   40.0554   37.6741   84.1445 C   0  0  0  0  0  0  0  0  0  0  0  0
   42.6613   38.6273   87.5812 C   0  0  0  0  0  0  0  0  0  0  0  0
  6  5  2  0
  9  3  1  0
  9  8  1  0
 10  4  2  0
 11  4  1  0
 12  7  1  0
 12 10  1  0
 15  3  2  0
 15  6  1  0
 16 14  3  0
 17  2  2  0
 17 10  1  0
 18 14  1  0
 19 11  1  0
 20  1  1  0
 20  7  1  0
 21  6  1  0
 21 13  1  0
 21 19  1  0
 22 21  1  0
 23  3  1  0
 23  5  1  0
 23 18  1  0
 24  2  1  0
 24  4  1  0
 25  1  1  0
 25 12  1  0
M  END
>  <ID>  (1) 
conformer_0

$$$$
