
     RDKit          3D

 28 29  0  0  0  0  0  0  0  0999 V2000
   42.9615   36.7499   89.7890 C   0  0  0  0  0  0  0  0  0  0  0  0
   45.2460   37.1814   83.2587 C   0  0  0  0  0  0  0  0  0  0  0  0
   40.9218   37.8430   85.7107 C   0  0  0  0  0  0  0  0  0  0  0  0
   40.2899   37.5536   84.3819 C   0  0  0  0  0  0  0  0  0  0  0  0
   44.6524   38.6458   83.1569 C   0  0  0  0  0  0  0  0  0  0  0  0
   45.3305   36.5855   81.9157 C   0  0  0  0  0  0  0  0  0  0  0  0
   41.8618   36.4672   88.7513 C   0  0  0  0  0  0  0  0  0  0  0  0
   44.9888   36.9228   79.2714 N   0  0  0  0  0  0  0  0  0  0  0  0
   46.8078   35.7242   79.2069 O   0  0  0  0  0  0  0  0  0  0  0  0
   45.8399   35.9816   78.6327 C   0  0  0  0  0  0  0  0  0  0  0  0
   41.8565   36.9187   86.1252 C   0  0  0  0  0  0  0  0  0  0  0  0
   45.6397   36.1123   84.6723 S   0  0  0  0  0  4  0  0  0  0  0  0
   44.2629   40.9435   80.3758 C   0  0  0  0  0  0  0  0  0  0  0  0
   44.1218   39.6236   80.1280 O   0  0  0  0  0  0  0  0  0  0  0  0
   45.3572   34.9559   84.6218 O   0  0  0  0  0  1  0  0  0  0  0  0
   45.4853   35.4539   77.1359 C   0  0  0  0  0  0  0  0  0  0  0  0
   44.2319   39.2491   85.0167 O   0  0  0  0  0  0  0  0  0  0  0  0
   42.4031   37.0752   87.2381 N   0  0  0  0  0  0  0  0  0  0  0  0
   41.9258   35.9323   85.0294 C   0  0  0  0  0  0  0  0  0  0  0  0
   44.0344   35.8265   86.7979 C   0  0  0  0  0  0  0  0  0  0  0  0
   44.8333   37.6119   80.7163 C   0  0  0  0  0  0  0  0  0  0  0  0
   44.1386   39.8263   82.7485 O   0  0  0  0  0  0  0  0  0  0  0  0
   42.8601   38.0369   89.7691 C   0  0  0  0  0  0  0  0  0  0  0  0
   47.0189   36.2734   84.8166 O   0  0  0  0  0  1  0  0  0  0  0  0
   40.9005   36.3075   83.8881 C   0  0  0  0  0  0  0  0  0  0  0  0
   44.4418   38.8479   81.5111 C   0  0  0  0  0  0  0  0  0  0  0  0
   43.4825   40.2797   83.7938 C   0  0  0  0  0  0  0  0  0  0  0  0
   42.4915   38.3578   88.0086 C   0  0  0  0  0  0  0  0  0  0  0  0
  4  3  2  0
  5  2  2  0
  6  2  1  0
  7  1  1  0
 10  8  1  0
 10  9  2  0
 11  3  1  0
 12  2  1  0
 14 13  1  0
 15 12  1  0
 16 10  1  0
 18 11  1  0
 19 11  1  0
 20  7  1  0
 20 12  1  0
 21  6  1  0
 21  8  1  0
 22  5  1  0
 23  1  1  0
 24 12  1  0
 25  4  1  0
 25 19  2  0
 26  5  1  0
 26 14  1  0
 26 21  2  0
 27 17  1  0
 27 22  1  0
 28 18  1  0
 28 23  1  0
M  RAD  2  15   2  24   2
M  END
>  <ID>  (1) 
conformer_0

$$$$
