
     RDKit          3D

 31 33  0  0  0  0  0  0  0  0999 V2000
   41.4459   35.8683   84.1654 C   0  0  0  0  0  0  0  0  0  0  0  0
   45.1386   37.1092   80.4451 C   0  0  0  0  0  0  0  0  0  0  0  0
   42.9006   36.7403   89.3448 C   0  0  0  0  0  0  0  0  0  0  0  0
   40.6690   38.1928   85.5139 C   0  0  0  0  0  0  0  0  0  0  0  0
   45.5370   36.1574   76.8369 C   0  0  0  0  0  0  0  0  0  0  0  0
   45.4958   36.6022   82.6829 C   0  0  0  0  0  0  0  0  0  0  0  0
   44.0774   40.9752   80.3514 C   0  0  0  0  0  0  0  0  0  0  0  0
   46.4920   35.6253   79.1591 O   0  0  0  0  0  0  0  0  0  0  0  0
   42.5796   38.7691   87.7677 C   0  0  0  0  0  0  0  0  0  0  0  0
   45.4872   36.3801   81.5199 C   0  0  0  0  0  0  0  0  0  0  0  0
   45.1630   39.1184   84.3370 O   0  0  0  0  0  0  0  0  0  0  0  0
   44.1484   39.5843   80.1031 O   0  0  0  0  0  0  0  0  0  0  0  0
   42.3634   37.5393   87.0449 N   0  0  0  0  0  0  0  0  0  0  0  0
   46.9724   36.7424   85.0075 O   0  0  0  0  0  1  0  0  0  0  0  0
   42.6317   34.9118   88.5327 O   0  0  0  0  0  0  0  0  0  0  0  0
   45.9239   36.0138   78.4072 C   0  0  0  0  0  0  0  0  0  0  0  0
   42.1441   36.4474   85.2799 C   0  0  0  0  0  0  0  0  0  0  0  0
   41.7162   37.4205   85.9905 C   0  0  0  0  0  0  0  0  0  0  0  0
   42.1765   38.0330   89.8040 C   0  0  0  0  0  0  0  0  0  0  0  0
   43.7816   35.9894   86.2452 C   0  0  0  0  0  0  0  0  0  0  0  0
   45.7651   36.2510   84.2975 S   0  0  0  0  0  4  0  0  0  0  0  0
   44.5976   38.7454   82.1513 C   0  0  0  0  0  0  0  0  0  0  0  0
   44.9847   37.1369   79.0765 N   0  0  0  0  0  0  0  0  0  0  0  0
   44.5578   38.6481   80.8900 C   0  0  0  0  0  0  0  0  0  0  0  0
   40.3224   36.6705   83.6757 C   0  0  0  0  0  0  0  0  0  0  0  0
   42.2705   36.6431   88.4949 C   0  0  0  0  0  0  0  0  0  0  0  0
   44.0876   40.2898   83.8211 C   0  0  0  0  0  0  0  0  0  0  0  0
   46.0401   35.1442   84.1593 O   0  0  0  0  0  1  0  0  0  0  0  0
   45.1767   38.2281   83.0843 C   0  0  0  0  0  0  0  0  0  0  0  0
   39.9326   37.7750   84.3352 C   0  0  0  0  0  0  0  0  0  0  0  0
   43.2713   39.2061   89.2312 C   0  0  0  0  0  0  0  0  0  0  0  0
 10  2  2  0
 10  6  1  0
 12  7  1  0
 13  9  1  0
 16  5  1  0
 16  8  2  0
 17  1  2  0
 18  4  2  0
 18 13  1  0
 18 17  1  0
 19  3  1  0
 20 17  1  0
 21  6  1  0
 21 14  1  0
 21 20  1  0
 23  2  1  0
 23 16  1  0
 24  2  1  0
 24 12  1  0
 24 22  2  0
 25  1  1  0
 26  3  1  0
 26 13  1  0
 26 15  1  0
 27 11  1  0
 28 21  1  0
 29  6  2  0
 29 11  1  0
 29 22  1  0
 30  4  1  0
 30 25  2  0
 31  9  1  0
 31 19  1  0
M  RAD  2  14   2  28   2
M  END
>  <ID>  (1) 
conformer_0

$$$$
