
     RDKit          3D

 24 26  0  0  0  0  0  0  0  0999 V2000
   45.0437   37.4309   80.7477 C   0  0  0  0  0  0  0  0  0  0  0  0
   41.6991   35.9959   84.7543 C   0  0  0  0  0  0  0  0  0  0  0  0
   42.9317   36.6101   89.5466 C   0  0  0  0  0  0  0  0  0  0  0  0
   42.6743   39.4804   86.7779 C   0  0  0  0  0  0  0  0  0  0  0  0
   45.5987   36.6115   82.0668 C   0  0  0  0  0  0  0  0  0  0  0  0
   45.6585   35.8696   77.0895 C   0  0  0  0  0  0  0  0  0  0  0  0
   40.6353   36.4633   83.8064 C   0  0  0  0  0  0  0  0  0  0  0  0
   41.7701   37.0788   85.9586 C   0  0  0  0  0  0  0  0  0  0  0  0
   44.1602   40.9414   80.4262 C   0  0  0  0  0  0  0  0  0  0  0  0
   41.8985   37.3597   88.4135 C   0  0  0  0  0  0  0  0  0  0  0  0
   44.0779   39.5449   80.5210 O   0  0  0  0  0  0  0  0  0  0  0  0
   47.1126   36.2791   84.6424 O   0  0  0  0  0  1  0  0  0  0  0  0
   42.1096   37.7926   87.0877 N   0  0  0  0  0  0  0  0  0  0  0  0
   46.7763   35.9383   79.4848 O   0  0  0  0  0  0  0  0  0  0  0  0
   45.0178   36.9913   79.1347 N   0  0  0  0  0  0  0  0  0  0  0  0
   45.2708   37.9795   83.1216 C   0  0  0  0  0  0  0  0  0  0  0  0
   45.8933   36.2075   78.5538 C   0  0  0  0  0  0  0  0  0  0  0  0
   44.3464   39.3882   86.0536 O   0  0  0  0  0  0  0  0  0  0  0  0
   45.8331   36.1576   84.2995 S   0  0  0  0  0  4  0  0  0  0  0  0
   44.6018   35.5825   86.8021 C   0  0  0  0  0  0  0  0  0  0  0  0
   40.4776   37.5941   84.7508 C   0  0  0  0  0  0  0  0  0  0  0  0
   45.4143   34.8958   84.0301 O   0  0  0  0  0  1  0  0  0  0  0  0
   44.5570   38.8347   81.5348 C   0  0  0  0  0  0  0  0  0  0  0  0
   42.6321   38.2350   89.4883 C   0  0  0  0  0  0  0  0  0  0  0  0
  5  1  2  0
  7  2  2  0
  8  2  1  0
 10  3  1  0
 11  9  1  0
 13  4  1  0
 13  8  1  0
 13 10  1  0
 15  1  1  0
 16  5  1  0
 17  6  1  0
 17 14  2  0
 17 15  1  0
 18  4  1  0
 19 12  1  0
 19 16  1  0
 20  3  1  0
 20 19  1  0
 21  7  1  0
 21  8  2  0
 22 19  1  0
 23  1  1  0
 23 11  1  0
 23 16  2  0
 24  3  1  0
 24 10  1  0
M  RAD  2  12   2  22   2
M  END
>  <ID>  (1) 
conformer_0

$$$$
