
     RDKit          3D

 25 27  0  0  0  0  0  0  0  0999 V2000
   40.1248   37.4635   84.2529 C   0  0  0  0  0  0  0  0  0  0  0  0
   44.4125   38.8665   81.2729 C   0  0  0  0  0  0  0  0  0  0  0  0
   42.6740   37.8432   89.6979 C   0  0  0  0  0  0  0  0  0  0  0  0
   45.6943   35.6070   77.3899 C   0  0  0  0  0  0  0  0  0  0  0  0
   40.7159   37.9037   85.3996 C   0  0  0  0  0  0  0  0  0  0  0  0
   42.3313   37.1459   85.6274 C   0  0  0  0  0  0  0  0  0  0  0  0
   45.4379   36.5337   81.6975 C   0  0  0  0  0  3  0  0  0  0  0  0
   45.0270   37.8613   83.0206 C   0  0  0  0  0  0  0  0  0  0  0  0
   41.9927   36.3789   88.4817 C   0  0  0  0  0  0  0  0  0  0  0  0
   43.9649   39.6549   80.1728 O   0  0  0  0  0  0  0  0  0  0  0  0
   45.6778   35.3679   85.1103 O   0  0  0  0  0  0  0  0  0  0  0  0
   42.2915   36.3542   84.5319 C   0  0  0  0  0  0  0  0  0  0  0  0
   42.4457   37.1603   87.1233 N   0  0  0  0  0  0  0  0  0  0  0  0
   44.6227   39.0353   84.4233 O   0  0  0  0  0  0  0  0  0  0  0  0
   45.6535   36.6866   84.6366 S   0  0  0  0  0  3  0  0  0  0  0  0
   42.9188   36.0240   89.3365 C   0  0  0  0  0  0  0  0  0  0  0  0
   44.3401   41.1316   80.1686 C   0  0  0  0  0  0  0  0  0  0  0  0
   44.5767   38.8540   82.1004 C   0  0  0  0  0  0  0  0  0  0  0  0
   44.9795   36.9901   79.1844 N   0  0  0  0  0  0  0  0  0  0  0  0
   44.9747   37.4122   80.5836 C   0  0  0  0  0  0  0  0  0  0  0  0
   45.5606   36.3726   78.3382 C   0  0  0  0  0  0  0  0  0  0  0  0
   46.8421   37.1545   84.8154 O   0  0  0  0  0  1  0  0  0  0  0  0
   40.9532   36.3977   83.7168 C   0  0  0  0  0  0  0  0  0  0  0  0
   43.8366   40.1189   84.7172 C   0  0  0  0  0  0  0  0  0  0  0  0
   42.5266   38.2126   87.8969 C   0  0  0  0  0  0  0  0  0  0  0  0
  5  1  2  0
  6  5  1  0
  8  7  1  0
 10  2  1  0
 12  6  2  0
 13  6  1  0
 13  9  1  0
 14  8  1  0
 15  8  1  0
 15 11  1  0
 16  3  1  0
 16  9  1  0
 17 10  1  0
 18  2  2  0
 18  8  1  0
 20  2  1  0
 20  7  1  0
 20 19  1  0
 21  4  3  0
 21 19  1  0
 22 15  1  0
 23  1  1  0
 23 12  1  0
 24 14  1  0
 25  3  1  0
 25 13  1  0
 25 24  1  0
M  RAD  3   7   2  15   2  22   2
M  END
>  <ID>  (1) 
conformer_0

$$$$
