
     RDKit          3D

 27 29  0  0  0  0  0  0  0  0999 V2000
   40.8985   38.2440   85.3150 C   0  0  0  0  0  0  0  0  0  0  0  0
   45.0854   37.1105   80.4858 C   0  0  0  0  0  0  0  0  0  0  0  0
   42.8014   36.4568   89.7496 C   0  0  0  0  0  0  0  0  0  0  0  0
   40.0460   37.7137   84.2532 C   0  0  0  0  0  0  0  0  0  0  0  0
   45.5672   35.8397   76.9428 C   0  0  0  0  0  0  0  0  0  0  0  0
   44.9356   38.1866   83.4176 C   0  0  0  0  0  0  0  0  0  0  0  0
   42.1535   36.1421   88.2555 C   0  0  0  0  0  0  0  0  0  0  0  0
   44.3554   39.4330   80.1980 O   0  0  0  0  0  0  0  0  0  0  0  0
   45.5613   36.2248   84.3337 S   0  0  0  0  0  6  0  0  0  0  0  0
   46.8951   36.4988   84.9322 O   0  0  0  0  0  0  0  0  0  0  0  0
   45.6326   36.3946   78.1172 C   0  0  0  0  0  0  0  0  0  0  0  0
   42.5613   37.4641   86.7911 N   0  0  0  0  0  0  0  0  0  0  0  0
   41.9787   37.1651   85.7916 C   0  0  0  0  0  0  0  0  0  0  0  0
   44.2880   40.8202   80.2412 C   0  0  0  0  0  0  0  0  0  0  0  0
   43.4003   39.2668   85.9102 C   0  0  0  0  0  0  0  0  0  0  0  0
   45.5278   38.8710   84.7294 O   0  0  0  0  0  0  0  0  0  0  0  0
   44.9296   37.0624   79.0638 N   0  0  0  0  0  0  0  0  0  0  0  0
   40.7114   36.4480   83.8588 C   0  0  0  0  0  0  0  0  0  0  0  0
   44.4584   38.8571   82.4053 C   0  0  0  0  0  3  0  0  0  0  0  0
   43.0972   38.0369   89.0727 C   0  0  0  0  0  0  0  0  0  0  0  0
   46.4184   36.0297   79.3358 O   0  0  0  0  0  0  0  0  0  0  0  0
   44.5392   38.6033   81.0628 C   0  0  0  0  0  0  0  0  0  0  0  0
   45.5693   34.8641   84.0235 O   0  0  0  0  0  0  0  0  0  0  0  0
   41.8897   36.2130   84.8605 C   0  0  0  0  0  0  0  0  0  0  0  0
   45.1475   36.5008   81.7845 C   0  0  0  0  0  0  0  0  0  0  0  0
   45.3106   36.6762   82.5061 C   0  0  0  0  0  0  0  0  0  0  0  0
   42.3080   38.2833   87.9307 C   0  0  0  0  0  0  0  0  0  0  0  0
  4  1  2  0
  7  3  1  0
  9  6  1  0
 10  9  1  0
 11  5  1  0
 13  1  1  0
 13 12  1  0
 14  8  1  0
 16  6  1  0
 17  2  1  0
 17 11  1  0
 18  4  1  0
 19  6  1  0
 20  3  1  0
 21 11  2  0
 22  2  2  0
 22  8  1  0
 22 19  1  0
 23  9  1  0
 24  9  1  0
 24 13  1  0
 24 18  2  0
 25  2  1  0
 26  6  1  0
 26  9  1  0
 26 25  2  0
 27 12  1  0
 27 15  1  0
 27 20  1  0
M  RAD  1  19   2
M  END
>  <ID>  (1) 
conformer_0

$$$$
