
     RDKit          3D

 26 26  0  0  0  0  0  0  0  0999 V2000
   41.9361   36.1060   84.9486 C   0  0  0  0  0  0  0  0  0  0  0  0
   43.0968   38.2330   89.8486 C   0  0  0  0  0  0  0  0  0  0  0  0
   45.1198   38.2338   83.1549 C   0  0  0  0  0  0  0  0  0  0  0  0
   40.8334   36.2879   83.9300 C   0  0  0  0  0  0  0  0  0  0  0  0
   45.5455   36.0151   76.8165 C   0  0  0  0  0  0  0  0  0  0  0  0
   44.7164   38.1701   80.9410 C   0  0  1  0  0  0  0  0  0  0  0  0
   44.1927   39.6265   80.2289 O   0  0  0  0  0  0  0  0  0  0  0  0
   41.8876   37.1108   86.0929 C   0  0  2  0  0  0  0  0  0  0  0  0
   42.0085   37.2376   88.8489 C   0  0  0  0  0  0  0  0  0  0  0  0
   45.3831   36.4447   81.6962 C   0  0  0  0  0  0  0  0  0  0  0  0
   45.6524   36.0499   84.6934 S   0  0  1  0  0  4  0  0  0  0  0  0
   45.8119   36.2538   78.5104 C   0  0  0  0  0  0  0  0  0  0  0  0
   44.8881   37.2455   79.3402 N   0  0  0  0  0  0  0  0  0  0  0  0
   40.7854   38.1250   85.4168 C   0  0  0  0  0  0  0  0  0  0  0  0
   46.7366   35.8260   79.1045 O   0  0  0  0  0  0  0  0  0  0  0  0
   44.0643   40.8176   80.2885 C   0  0  0  0  0  0  0  0  0  0  0  0
   45.1762   34.9102   84.8857 O   0  0  0  0  0  0  0  0  0  0  0  0
   42.2008   37.8939   87.4080 N   0  0  0  0  0  0  0  0  0  0  0  0
   44.6513   38.9231   82.3941 C   0  0  0  0  0  0  0  0  0  0  0  0
   42.4290   39.2574   87.5898 C   0  0  0  0  0  0  0  0  0  0  0  0
   43.3446   36.9168   89.8959 C   0  0  0  0  0  0  0  0  0  0  0  0
   46.8240   36.1361   85.1927 O   0  0  0  0  0  0  0  0  0  0  0  0
   45.5303   36.8588   82.8674 C   0  0  0  0  0  0  0  0  0  0  0  0
   43.4198   35.5877   85.7138 C   0  0  0  0  0  0  0  0  0  0  0  0
   40.1364   37.5099   84.2425 C   0  0  0  0  0  0  0  0  0  0  0  0
   44.6697   39.2939   84.6586 O   0  0  0  0  0  0  0  0  0  0  0  0
  4  1  2  0
  7  6  1  0
  8  1  1  0
 12  5  1  0
  6 13  1  6
 13 12  1  0
 14  8  1  0
 15 12  2  0
 16  7  1  0
 17 11  1  0
  8 18  1  6
 18  9  1  0
 19  3  2  3
 19  6  1  0
 20 18  1  0
 21  2  1  0
 21  9  1  0
 11 22  1  6
 23  3  1  0
 23 10  2  3
 23 11  1  0
 24  1  1  0
 24 17  1  0
 25  4  1  0
 25 14  2  0
 26  3  1  0
M  END
>  <ID>  (1) 
conformer_0

$$$$
