
     RDKit          3D

 26 29  0  0  0  0  0  0  0  0999 V2000
   40.7782   38.0220   85.3656 C   0  0  0  0  0  0  0  0  0  0  0  0
   42.6570   38.4575   89.1248 C   0  0  0  0  0  0  0  0  0  0  0  0
   44.4102   38.7903   81.1059 C   0  0  0  0  0  0  0  0  0  0  0  0
   40.0859   37.4829   84.2322 C   0  0  0  0  0  0  0  0  0  0  0  0
   42.4332   37.2119   86.9553 N   0  0  0  0  0  0  0  0  0  0  0  0
   44.3479   35.8033   86.0212 C   0  0  0  0  0  0  0  0  0  0  0  0
   45.4321   36.6815   81.3220 C   0  0  0  0  0  0  0  0  0  0  0  0
   47.0765   36.5170   84.6710 O   0  0  0  0  0  0  0  0  0  0  0  0
   41.8975   37.0328   85.9385 C   0  0  0  0  0  0  0  0  0  0  0  0
   45.1050   38.8926   84.6019 O   0  0  0  0  0  0  0  0  0  0  0  0
   46.4873   35.9128   78.9390 O   0  0  0  0  0  0  0  0  0  0  0  0
   45.1907   38.1073   83.2626 C   0  0  0  0  0  0  0  0  0  0  0  0
   44.0117   39.3593   80.1215 O   0  0  0  0  0  0  0  0  0  0  0  0
   45.6880   35.9870   78.1631 C   0  0  0  0  0  0  0  0  0  0  0  0
   42.6297   38.6503   87.5642 C   0  0  0  0  0  0  0  0  0  0  0  0
   45.9012   36.1685   84.1145 S   0  0  0  0  0  6  0  0  0  0  0  0
   44.2035   40.8575   80.4993 C   0  0  0  0  0  0  0  0  0  0  0  0
   41.8905   36.0241   84.8081 C   0  0  0  0  0  0  0  0  0  0  0  0
   45.9883   34.7835   83.3763 O   0  0  0  0  0  0  0  0  0  0  0  0
   44.6817   38.6813   82.3129 C   0  0  0  0  0  0  0  0  0  0  0  0
   42.2130   37.0306   89.5927 C   0  0  0  0  0  0  0  0  0  0  0  0
   44.8141   36.8959   78.8973 N   0  0  0  0  0  0  0  0  0  0  0  0
   40.7203   36.2770   83.7894 C   0  0  0  0  0  0  0  0  0  0  0  0
   44.9871   37.2266   80.3159 C   0  0  0  0  0  0  0  0  0  0  0  0
   45.5940   36.5206   82.4680 C   0  0  0  0  0  3  0  0  0  0  0  0
   42.1850   36.6765   88.3607 C   0  0  0  0  0  0  0  0  0  0  0  0
  4  1  2  0
  9  1  1  0
  9  5  1  0
 12 10  1  0
 13  3  1  0
 14 11  1  0
 15  2  1  0
 15  5  1  0
 16  6  1  0
 16  8  1  0
 16 12  1  0
 17 13  1  0
 18  9  1  0
 19 16  1  0
 20  3  2  0
 20 12  1  0
 21  2  2  0
 22 14  1  0
 23  4  1  0
 23 18  2  0
 24  3  1  0
 24  7  2  0
 24 22  1  0
 25  7  1  0
 25 12  1  0
 25 16  1  0
 26  5  1  0
 26  6  1  0
 26 21  1  0
M  RAD  1  25   2
M  END
>  <ID>  (1) 
conformer_0

$$$$
