
     RDKit          3D

 30 31  0  0  0  0  0  0  0  0999 V2000
   45.5325   36.9550   83.0089 C   0  0  0  0  0  0  0  0  0  0  0  0
   39.9697   37.7274   84.2295 C   0  0  0  0  0  0  0  0  0  0  0  0
   43.4446   37.7030   89.4203 C   0  0  0  0  0  0  0  0  0  0  0  0
   40.8632   38.0949   85.2714 C   0  0  0  0  0  0  0  0  0  0  0  0
   44.4777   38.6460   81.4289 C   0  0  0  0  0  0  0  0  0  0  0  0
   45.6275   36.0971   77.9476 C   0  0  0  0  0  0  0  0  0  0  0  0
   44.1540   39.3717   80.2146 O   0  0  0  0  0  0  0  0  0  0  0  0
   41.8392   37.6913   88.5303 C   0  0  0  0  0  0  0  0  0  0  0  0
   41.8176   36.2393   85.2906 C   0  0  0  0  0  3  0  0  0  0  0  0
   43.4522   38.2406   86.7314 C   0  0  0  0  0  0  0  0  0  0  0  0
   44.8891   36.8091   79.3569 N   0  0  0  0  0  0  0  0  0  0  0  0
   45.3481   36.3698   81.7637 C   0  0  0  0  0  0  0  0  0  0  0  0
   42.3587   37.8779   90.1552 C   0  0  0  0  0  0  0  0  0  0  0  0
   45.1155   35.7528   76.1958 C   0  0  0  0  0  0  0  0  0  0  0  0
   44.8419   39.3895   85.3121 O   0  0  0  0  0  0  0  0  0  0  0  0
   45.5439   34.9822   84.4826 O   0  0  0  0  0  0  0  0  0  0  0  0
   44.3976   39.0607   82.4459 C   0  0  0  0  0  0  0  0  0  0  0  0
   41.6503   37.3107   85.8222 C   0  0  0  0  0  0  0  0  0  0  0  0
   45.9817   36.1840   84.3116 S   0  0  0  0  0  4  0  0  0  0  0  0
   46.5165   36.5326   77.8769 O   0  0  0  0  0  0  0  0  0  0  0  0
   44.0046   40.8460   80.3592 C   0  0  0  0  0  0  0  0  0  0  0  0
   45.1080   38.3697   83.6070 C   0  0  0  0  0  0  0  0  0  0  0  0
   42.2716   37.2343   87.3478 N   0  0  0  0  0  0  0  0  0  0  0  0
   41.3031   35.7638   83.9409 C   0  0  0  0  0  0  0  0  0  0  0  0
   44.0830   39.9082   85.1506 C   0  0  0  0  0  0  0  0  0  0  0  0
   47.2404   36.2466   84.6208 O   0  0  0  0  0  0  0  0  0  0  0  0
   44.8225   37.3403   80.9168 C   0  0  0  0  0  0  0  0  0  0  0  0
   43.0250   36.0035   89.8509 C   0  0  0  0  0  0  0  0  0  0  0  0
   42.1276   35.8457   87.9026 C   0  0  0  0  0  0  0  0  0  0  0  0
   40.2807   36.5854   83.4423 C   0  0  0  0  0  0  0  0  0  0  0  0
  4  2  2  0
  7  5  1  0
 11  6  1  0
 12  1  2  0
 13  3  1  0
 13  8  1  0
 14  6  1  0
 17  5  1  0
 18  4  1  0
 18  9  1  0
 18 10  1  0
 19  1  1  0
 19 16  1  0
 20  6  2  0
 21  7  1  0
 22  1  1  0
 22 15  1  0
 22 17  2  0
 23  8  1  0
 23 18  1  0
 24  9  1  0
 25 10  1  0
 25 15  1  0
 26 19  1  0
 27  5  2  0
 27 11  1  0
 27 12  1  0
 28  3  1  0
 29 23  1  0
 30  2  1  0
 30 24  2  0
M  RAD  1   9   2
M  END
>  <ID>  (1) 
conformer_0

$$$$
