
     RDKit          3D

 29 31  0  0  0  0  0  0  0  0999 V2000
   44.4316   38.3673   80.9748 C   0  0  0  0  0  0  0  0  0  0  0  0
   40.1138   37.2829   84.3991 C   0  0  0  0  0  0  0  0  0  0  0  0
   43.2825   37.3109   89.8442 C   0  0  0  0  0  0  0  0  0  0  0  0
   41.0041   37.9359   85.3749 C   0  0  0  0  0  0  0  0  0  0  0  0
   41.8935   36.8778   86.1312 C   0  0  0  0  0  0  0  0  0  0  0  0
   45.1956   36.8333   80.5030 C   0  0  0  0  0  0  0  0  0  0  0  0
   45.6890   35.9113   78.0051 C   0  0  0  0  0  0  0  0  0  0  0  0
   44.0895   41.0519   80.3960 C   0  0  0  0  0  0  0  0  0  0  0  0
   44.2975   38.9476   82.4034 C   0  0  0  0  0  3  0  0  0  0  0  0
   42.2468   37.6221   87.3713 N   0  0  0  0  0  0  0  0  0  0  0  0
   42.1093   36.7569   88.6208 C   0  0  0  0  0  0  0  0  0  0  0  0
   43.9185   39.6344   80.1131 O   0  0  0  0  0  0  0  0  0  0  0  0
   42.1848   35.9003   85.3447 C   0  0  0  0  0  0  0  0  0  0  0  0
   45.1353   39.0837   84.8061 O   0  0  0  0  0  0  0  0  0  0  0  0
   45.5495   34.5021   83.6908 O   0  0  0  0  0  0  0  0  0  0  0  0
   46.4621   35.9067   78.8997 O   0  0  0  0  0  0  0  0  0  0  0  0
   44.7395   37.1820   79.2434 N   0  0  0  0  0  0  0  0  0  0  0  0
   44.5696   35.0041   86.4821 C   0  0  0  0  0  0  0  0  0  0  0  0
   43.3251   39.6350   86.0846 C   0  0  0  0  0  0  0  0  0  0  0  0
   45.6983   35.9948   84.0059 S   0  0  0  0  0  6  0  0  0  0  0  0
   45.0399   37.9981   83.2018 C   0  0  0  0  0  0  0  0  0  0  0  0
   42.0661   37.7726   90.1969 C   0  0  0  0  0  0  0  0  0  0  0  0
   46.5578   36.2325   84.5668 O   0  0  0  0  0  0  0  0  0  0  0  0
   45.4075   36.4668   82.2771 C   0  0  0  0  0  0  0  0  0  0  0  0
   45.5568   36.4938   81.6518 C   0  0  0  0  0  0  0  0  0  0  0  0
   40.6255   36.4229   83.4659 C   0  0  0  0  0  0  0  0  0  0  0  0
   43.1138   39.2905   88.6670 C   0  0  0  0  0  0  0  0  0  0  0  0
   41.4070   35.4215   84.1920 C   0  0  0  0  0  0  0  0  0  0  0  0
   42.4938   38.8810   88.0524 C   0  0  0  0  0  0  0  0  0  0  0  0
  4  2  2  0
  5  4  1  0
  6  1  2  0
  9  1  1  0
 10  5  1  0
 11  3  1  0
 11 10  1  0
 12  1  1  0
 12  8  1  0
 13  5  2  0
 16  7  1  0
 17  6  1  0
 17  7  1  0
 19 14  1  0
 20 15  1  0
 20 18  1  0
 21  9  1  0
 21 14  1  0
 21 20  1  0
 22  3  1  0
 23 20  1  0
 24 20  1  0
 24 21  1  0
 25  6  1  0
 25 24  2  0
 26  2  1  0
 28 13  1  0
 28 26  2  0
 29 10  1  0
 29 19  1  0
 29 27  1  0
M  RAD  1   9   2
M  END
>  <ID>  (1) 
conformer_0

$$$$
