
     RDKit          3D

 28 30  0  0  0  0  0  0  0  0999 V2000
   40.1253   37.1868   84.1142 C   0  0  0  0  0  0  0  0  0  0  0  0
   44.2917   39.0892   81.6132 C   0  0  0  0  0  0  0  0  0  0  0  0
   40.7136   37.7771   85.3745 C   0  0  0  0  0  0  0  0  0  0  0  0
   42.8599   36.4703   89.7823 C   0  0  0  0  0  0  0  0  0  0  0  0
   41.9318   36.2505   88.5445 C   0  0  0  0  0  0  0  0  0  0  0  0
   44.9552   37.2493   80.5889 C   0  0  0  0  0  0  0  0  0  0  0  0
   44.8897   39.1720   84.7849 O   0  0  0  0  0  0  0  0  0  0  0  0
   41.6812   36.8769   86.0015 C   0  0  0  0  0  0  0  0  0  0  0  0
   44.2665   39.0261   81.7830 C   0  0  0  0  0  0  0  0  0  0  0  0
   42.0550   36.0956   84.8683 C   0  0  0  0  0  0  0  0  0  0  0  0
   45.5850   35.6692   77.0962 C   0  0  0  0  0  0  0  0  0  0  0  0
   44.9589   37.0245   79.2243 N   0  0  0  0  0  0  0  0  0  0  0  0
   45.7470   36.0542   78.3464 C   0  0  0  0  0  0  0  0  0  0  0  0
   46.8988   36.7089   84.8570 O   0  0  0  0  0  1  0  0  0  0  0  0
   46.5474   35.8287   79.2012 O   0  0  0  0  0  0  0  0  0  0  0  0
   45.8347   36.1653   84.3801 S   0  0  0  0  0  4  0  0  0  0  0  0
   44.0921   39.9702   85.0129 C   0  0  0  0  0  0  0  0  0  0  0  0
   42.1124   36.9011   87.1819 N   0  0  0  0  0  0  0  0  0  0  0  0
   45.3571   36.6914   82.2682 C   0  0  0  0  0  0  0  0  0  0  0  0
   43.8485   41.2238   80.9329 C   0  0  0  0  0  0  0  0  0  0  0  0
   43.8990   40.3023   81.2194 O   0  0  0  0  0  0  0  0  0  0  0  0
   40.9344   36.0523   83.6879 C   0  0  0  0  0  0  0  0  0  0  0  0
   44.4942   35.3219   86.3959 C   0  0  0  0  0  0  0  0  0  0  0  0
   45.7852   35.0326   84.1825 O   0  0  0  0  0  1  0  0  0  0  0  0
   45.2845   36.7471   81.8190 C   0  0  0  0  0  0  0  0  0  0  0  0
   42.8557   38.2948   89.4034 C   0  0  0  0  0  0  0  0  0  0  0  0
   42.3545   38.1037   88.0789 C   0  0  0  0  0  0  0  0  0  0  0  0
   44.8377   38.1668   83.3983 C   0  0  0  0  0  0  0  0  0  0  0  0
  3  1  2  0
  5  4  1  0
  8  3  1  0
  9  2  1  0
 10  8  2  0
 12  6  1  0
 13 11  1  0
 13 12  1  0
 15 13  2  0
 16 14  1  0
 17  7  1  0
 18  5  1  0
 18  8  1  0
 19 16  1  0
 21  2  1  0
 21 20  1  0
 22  1  1  0
 22 10  1  0
 23  4  1  0
 23 16  1  0
 24 16  1  0
 25  6  2  0
 25 19  2  0
 26  4  1  0
 27  5  1  0
 27 18  1  0
 27 26  1  0
 28  7  1  0
 28  9  1  0
 28 19  1  0
M  RAD  2  14   2  24   2
M  END
>  <ID>  (1) 
conformer_0

$$$$
