
     RDKit          3D

 26 28  0  0  0  0  0  0  0  0999 V2000
   42.9039   38.3040   89.5498 C   0  0  0  0  0  0  0  0  0  0  0  0
   45.7044   36.4739   82.2527 C   0  0  0  0  0  0  0  0  0  0  0  0
   41.0854   38.1085   84.9328 C   0  0  0  0  0  0  0  0  0  0  0  0
   40.2022   37.3719   84.0212 C   0  0  0  0  0  0  0  0  0  0  0  0
   44.6334   38.8183   81.9099 C   0  0  2  0  0  0  0  0  0  0  0  0
   43.9847   40.8616   80.6358 C   0  0  0  0  0  0  0  0  0  0  0  0
   44.5280   39.2289   84.4144 O   0  0  0  0  0  0  0  0  0  0  0  0
   45.8984   36.0387   78.7835 C   0  0  0  0  0  0  0  0  0  0  0  0
   42.3402   37.5839   86.8800 N   0  0  0  0  0  0  0  0  0  0  0  0
   41.9131   37.0849   85.8850 C   0  0  0  0  0  0  0  0  0  0  0  0
   44.2477   39.5268   80.1651 O   0  0  0  0  0  0  0  0  0  0  0  0
   42.1090   37.8589   88.2181 C   0  0  1  0  0  0  0  0  0  0  0  0
   41.8646   35.9666   84.8674 C   0  0  0  0  0  0  0  0  0  0  0  0
   43.0392   37.0276   90.0694 C   0  0  0  0  0  0  0  0  0  0  0  0
   45.2854   37.7960   83.3794 C   0  0  0  0  0  0  0  0  0  0  0  0
   45.5716   35.8080   77.3020 C   0  0  0  0  0  0  0  0  0  0  0  0
   43.1632   39.1430   85.8000 C   0  0  0  0  0  0  0  0  0  0  0  0
   47.1434   36.1396   84.6529 O   0  0  0  0  0  0  0  0  0  0  0  0
   45.1509   37.3024   81.5154 C   0  0  0  0  0  0  0  0  0  0  0  0
   43.4959   35.2763   86.6621 C   0  0  0  0  0  0  0  0  0  0  0  0
   46.3202   35.9943   79.4410 O   0  0  0  0  0  0  0  0  0  0  0  0
   46.0557   34.6341   82.8303 O   0  0  0  0  0  0  0  0  0  0  0  0
   40.7592   36.1179   83.7386 C   0  0  0  0  0  0  0  0  0  0  0  0
   45.9967   36.0713   84.1045 S   0  0  0  0  0  6  0  0  0  0  0  0
   44.9839   37.6547   80.5486 C   0  0  0  0  0  0  0  0  0  0  0  0
   44.9450   35.2358   84.9049 O   0  0  0  0  0  0  0  0  0  0  0  0
  4  3  2  0
 10  3  1  0
 10  9  1  0
  5 11  1  6
 11  6  1  0
 12  1  1  1
 12  9  1  0
 13 10  1  0
 14  1  1  0
 15  2  2  0
 15  5  1  0
 16  8  1  0
 17  7  1  0
 17  9  1  0
 19  2  1  0
 19  5  1  0
 20 12  1  0
 21  8  2  0
 23  4  1  0
 23 13  2  0
 24  2  1  0
 24 15  1  0
 24 18  1  0
 24 22  1  0
 25  8  1  0
 25 19  2  3
 26 20  1  0
 26 24  1  0
M  END
>  <ID>  (1) 
conformer_0

$$$$
