
     RDKit          3D

 28 30  0  0  0  0  0  0  0  0999 V2000
   43.0201   37.2764   90.1101 C   0  0  0  0  0  0  0  0  0  0  0  0
   42.0030   36.0919   84.7104 C   0  0  0  0  0  3  0  0  0  0  0  0
   44.8081   37.3571   80.3863 C   0  0  0  0  0  0  0  0  0  0  0  0
   40.8316   37.9458   85.1605 C   0  0  0  0  0  0  0  0  0  0  0  0
   42.0689   35.8266   88.3682 C   0  0  0  0  0  0  0  0  0  0  0  0
   45.4679   36.4092   81.6596 C   0  0  0  0  0  0  0  0  0  0  0  0
   45.4200   36.6686   82.5596 C   0  0  0  0  0  0  0  0  0  0  0  0
   44.1680   41.1931   80.3377 C   0  0  0  0  0  0  0  0  0  0  0  0
   42.1069   37.1942   87.2513 N   0  0  0  0  0  0  0  0  0  0  0  0
   41.7615   37.0369   85.9021 C   0  0  0  0  0  0  0  0  0  0  0  0
   44.0929   39.7662   80.0911 O   0  0  0  0  0  0  0  0  0  0  0  0
   46.6218   35.7144   78.9216 O   0  0  0  0  0  0  0  0  0  0  0  0
   45.6253   35.9699   78.4055 C   0  0  0  0  0  0  0  0  0  0  0  0
   44.6855   36.9265   79.0724 N   0  0  0  0  0  0  0  0  0  0  0  0
   43.1554   38.6432   86.8674 C   0  0  0  0  0  0  0  0  0  0  0  0
   45.3580   39.0387   85.1499 O   0  0  0  0  0  0  0  0  0  0  0  0
   46.7640   36.7253   85.1937 O   0  0  0  0  0  0  0  0  0  0  0  0
   45.0799   35.8510   76.5438 C   0  0  0  0  0  0  0  0  0  0  0  0
   44.4880   38.6637   82.5076 C   0  0  0  0  0  0  0  0  0  0  0  0
   40.2033   37.3932   83.9859 C   0  0  0  0  0  0  0  0  0  0  0  0
   45.6793   36.6808   84.4683 S   0  0  0  0  0  6  0  0  0  0  0  0
   44.3216   38.7692   80.8896 C   0  0  0  0  0  0  0  0  0  0  0  0
   43.6462   38.0394   89.4848 C   0  0  0  0  0  0  0  0  0  0  0  0
   46.1517   35.0786   84.1357 O   0  0  0  0  0  0  0  0  0  0  0  0
   44.8167   34.8807   86.2870 C   0  0  0  0  0  0  0  0  0  0  0  0
   40.9722   36.1817   83.5589 C   0  0  0  0  0  0  0  0  0  0  0  0
   42.1141   37.7883   88.6621 C   0  0  0  0  0  0  0  0  0  0  0  0
   45.0050   38.2112   83.1444 C   0  0  0  0  0  0  0  0  0  0  0  0
  6  3  2  0
  7  6  1  0
  9  5  1  0
 10  2  1  0
 10  4  1  0
 10  9  1  0
 11  8  1  0
 13 12  2  0
 14  3  1  0
 14 13  1  0
 15 10  1  0
 18 13  1  0
 20  4  2  0
 21  7  1  0
 21 16  1  0
 21 17  1  0
 22  3  1  0
 22 11  1  0
 22 19  2  0
 23  1  1  0
 24 21  1  0
 25  5  1  0
 25 21  1  0
 26  2  1  0
 26 20  1  0
 27  9  1  0
 27 23  1  0
 28  7  2  0
 28 19  1  0
 28 21  1  0
M  RAD  1   2   2
M  END
>  <ID>  (1) 
conformer_0

$$$$
