
     RDKit          3D

 30 32  0  0  0  0  0  0  0  0999 V2000
   39.9560   37.0891   84.1609 C   0  0  0  0  0  0  0  0  0  0  0  0
   42.3204   36.8897   89.5575 C   0  0  0  0  0  0  0  0  0  0  0  0
   44.6025   38.7479   80.8289 C   0  0  0  0  0  0  0  0  0  0  0  0
   45.4359   36.4065   76.4653 C   0  0  0  0  0  0  0  0  0  0  0  0
   40.3919   37.7799   85.2844 C   0  0  0  0  0  0  0  0  0  0  0  0
   45.1860   38.2446   83.0791 C   0  0  0  0  0  0  0  0  0  0  0  0
   43.4949   37.3911   89.6173 C   0  0  0  0  0  0  0  0  0  0  0  0
   41.8300   37.1003   85.8761 C   0  0  0  0  0  0  0  0  0  0  0  0
   42.3251   37.6280   86.8870 N   0  0  0  0  0  0  0  0  0  0  0  0
   44.1997   40.9529   80.3901 C   0  0  0  0  0  0  0  0  0  0  0  0
   42.6917   39.0006   87.5715 C   0  0  0  0  0  0  0  0  0  0  0  0
   44.9239   39.1797   84.5084 O   0  0  0  0  0  0  0  0  0  0  0  0
   44.1433   39.7514   79.8371 O   0  0  0  0  0  0  0  0  0  0  0  0
   44.8011   37.1389   79.2424 N   0  0  0  0  0  0  0  0  0  0  0  0
   46.4389   35.6733   79.3827 O   0  0  0  0  0  0  0  0  0  0  0  0
   44.6947   39.0772   81.9683 C   0  0  0  0  0  0  0  0  0  0  0  0
   45.7596   36.1693   78.5080 C   0  0  0  0  0  0  0  0  0  0  0  0
   40.9269   36.1041   83.7856 C   0  0  0  0  0  0  0  0  0  0  0  0
   46.4180   36.4852   85.0645 O   0  0  0  0  0  1  0  0  0  0  0  0
   45.7186   36.0768   84.2301 S   0  0  0  0  0  4  0  0  0  0  0  0
   44.1801   39.5181   84.8512 C   0  0  0  0  0  0  0  0  0  0  0  0
   45.6591   36.5257   81.5705 C   0  0  0  0  0  0  0  0  0  0  0  0
   44.3631   35.4288   85.8367 C   0  0  0  0  0  0  0  0  0  0  0  0
   45.5875   36.7446   82.5841 C   0  0  0  0  0  0  0  0  0  0  0  0
   45.2292   37.0600   80.6089 C   0  0  0  0  0  0  0  0  0  0  0  0
   42.9013   38.8280   89.0739 C   0  0  0  0  0  0  0  0  0  0  0  0
   42.0130   36.1405   84.7629 C   0  0  0  0  0  0  0  0  0  0  0  0
   42.0029   36.9889   88.1519 C   0  0  0  0  0  0  0  0  0  0  0  0
   45.6135   35.4044   77.5107 C   0  0  0  0  0  0  0  0  0  0  0  0
   45.9183   34.8310   84.0945 O   0  0  0  0  0  1  0  0  0  0  0  0
  5  1  2  0
  7  2  1  0
  8  5  1  0
  9  8  1  0
 11  9  1  0
 12  6  1  0
 13  3  1  0
 13 10  1  0
 16  3  2  0
 16  6  1  0
 17 14  1  0
 17 15  2  0
 18  1  1  0
 20 19  1  0
 21 12  1  0
 23 20  1  0
 24  6  2  0
 24 20  1  0
 24 22  1  0
 25  3  1  0
 25 14  1  0
 25 22  2  0
 26  7  1  0
 26 11  1  0
 27  8  2  0
 27 18  1  0
 27 23  1  0
 28  2  1  0
 28  9  1  0
 29  4  1  0
 29 17  1  0
 30 20  1  0
M  RAD  2  19   2  30   2
M  END
>  <ID>  (1) 
conformer_0

$$$$
