
     RDKit          3D

 28 30  0  0  0  0  0  0  0  0999 V2000
   40.5080   37.7914   85.3323 C   0  0  0  0  0  0  0  0  0  0  0  0
   42.6707   36.4383   89.4929 C   0  0  0  0  0  0  0  0  0  0  0  0
   44.3535   38.7288   80.7474 C   0  0  0  0  0  0  0  0  0  0  0  0
   40.8801   36.2104   83.6458 C   0  0  0  0  0  0  0  0  0  0  0  0
   42.0532   37.4378   87.0968 N   0  0  0  0  0  0  0  0  0  0  0  0
   44.9002   38.8125   82.7222 C   0  0  0  0  0  0  0  0  0  0  0  0
   41.8644   36.9003   85.9462 C   0  0  0  0  0  0  0  0  0  0  0  0
   45.3447   36.6841   81.6543 C   0  0  0  0  0  0  0  0  0  0  0  0
   41.6567   37.1795   88.4562 C   0  0  0  0  0  0  0  0  0  0  0  0
   44.0568   39.6963   80.2200 O   0  0  0  0  0  0  0  0  0  0  0  0
   44.3819   35.6844   86.2050 C   0  0  0  0  0  0  0  0  0  0  0  0
   47.2370   36.4187   84.5511 O   0  0  0  0  0  1  0  0  0  0  0  0
   45.9785   35.9145   78.5129 C   0  0  0  0  0  0  0  0  0  0  0  0
   44.9318   37.0649   79.0354 N   0  0  0  0  0  0  0  0  0  0  0  0
   45.9490   36.4361   84.2069 S   0  0  0  0  0  4  0  0  0  0  0  0
   46.7854   35.8270   79.3223 O   0  0  0  0  0  0  0  0  0  0  0  0
   41.9448   36.0655   84.6838 C   0  0  0  0  0  0  0  0  0  0  0  0
   43.9891   41.1277   80.5326 C   0  0  0  0  0  0  0  0  0  0  0  0
   45.5652   35.9748   77.0226 C   0  0  0  0  0  0  0  0  0  0  0  0
   41.9851   37.6096   90.1083 C   0  0  0  0  0  0  0  0  0  0  0  0
   44.9949   37.3001   80.4207 C   0  0  0  0  0  0  0  0  0  0  0  0
   44.6992   38.7715   82.5106 C   0  0  0  0  0  0  0  0  0  0  0  0
   45.9124   34.9562   83.7519 O   0  0  0  0  0  1  0  0  0  0  0  0
   40.0626   37.2880   84.1524 C   0  0  0  0  0  0  0  0  0  0  0  0
   45.3912   39.1135   84.5827 O   0  0  0  0  0  0  0  0  0  0  0  0
   42.3880   38.9992   87.3980 C   0  0  0  0  0  0  0  0  0  0  0  0
   45.5301   37.0659   82.8311 C   0  0  0  0  0  0  0  0  0  0  0  0
   42.9780   38.6755   89.4023 C   0  0  0  0  0  0  0  0  0  0  0  0
  7  1  2  0
  7  5  1  0
  9  2  1  0
  9  5  1  0
 10  3  1  0
 14 13  1  0
 15 11  1  0
 15 12  1  0
 16 13  2  0
 17  4  2  0
 17  7  1  0
 17 11  1  0
 18 10  1  0
 19 13  1  0
 20  2  1  0
 20  9  1  0
 21  3  2  0
 21  8  1  0
 21 14  1  0
 22  3  1  0
 22  6  2  0
 23 15  1  0
 24  1  1  0
 24  4  1  0
 25  6  1  0
 26  5  1  0
 27  6  1  0
 27  8  2  0
 27 15  1  0
 28 20  1  0
M  RAD  2  12   2  23   2
M  END
>  <ID>  (1) 
conformer_0

$$$$
