
     RDKit          3D

 25 28  0  0  0  0  0  0  0  0999 V2000
   44.5693   38.5016   80.6972 C   0  0  0  0  0  0  0  0  0  0  0  0
   41.2884   37.9065   85.2264 C   0  0  0  0  0  0  0  0  0  0  0  0
   42.7859   36.3701   89.5557 C   0  0  0  0  0  0  0  0  0  0  0  0
   40.3928   37.5146   84.1876 C   0  0  0  0  0  0  0  0  0  0  0  0
   45.1177   37.6998   82.8230 C   0  0  0  0  0  0  0  0  0  0  0  0
   41.7586   36.9259   88.5623 C   0  0  0  0  0  0  0  0  0  0  0  0
   44.0239   41.0714   80.0869 C   0  0  0  0  0  0  0  0  0  0  0  0
   45.6292   36.4141   84.6675 S   0  0  0  0  0  4  0  0  0  0  0  0
   45.3455   36.0486   76.7423 C   0  0  0  0  0  0  0  0  0  0  0  0
   42.1227   36.7915   85.8319 C   0  0  0  0  0  0  0  0  0  0  0  0
   46.9767   36.7807   84.9276 O   0  0  0  0  0  1  0  0  0  0  0  0
   44.4200   39.7194   79.6942 O   0  0  0  0  0  0  0  0  0  0  0  0
   44.5145   38.9803   82.1465 C   0  0  0  0  0  0  0  0  0  0  0  0
   45.0858   38.9508   84.5739 O   0  0  0  0  0  0  0  0  0  0  0  0
   45.5408   36.0147   78.1062 C   0  0  0  0  0  0  0  0  0  0  0  0
   41.9693   35.9786   84.7715 C   0  0  0  0  0  0  0  0  0  0  0  0
   45.0965   37.0841   80.6395 C   0  0  0  0  0  0  0  0  0  0  0  0
   44.2277   35.4761   86.8281 C   0  0  0  0  0  0  0  0  0  0  0  0
   46.0022   36.2698   79.2657 O   0  0  0  0  0  0  0  0  0  0  0  0
   45.3097   36.5999   81.9477 C   0  0  0  0  0  3  0  0  0  0  0  0
   41.7884   37.6448   88.0523 N   0  0  0  0  0  0  0  0  0  0  0  0
   45.6483   35.0478   84.4005 O   0  0  0  0  0  1  0  0  0  0  0  0
   42.8813   37.8342   89.3851 C   0  0  0  0  0  0  0  0  0  0  0  0
   40.8937   36.2369   83.6648 C   0  0  0  0  0  0  0  0  0  0  0  0
   42.5594   38.8404   88.0708 C   0  0  0  0  0  0  0  0  0  0  0  0
  4  2  2  0
  6  3  1  0
  8  5  1  0
 10  2  1  0
 11  8  1  0
 12  1  1  0
 12  7  1  0
 13  1  2  0
 13  5  1  0
 14  5  1  0
 15  9  1  0
 16 10  1  0
 17  1  1  0
 18  3  1  0
 18  8  1  0
 19 15  1  0
 19 17  1  0
 20  5  1  0
 20 17  1  0
 21  6  1  0
 22  8  1  0
 23  3  1  0
 23  6  1  0
 24  4  1  0
 24 16  2  0
 25  2  1  0
 25 21  1  0
 25 23  1  0
M  RAD  3  11   2  20   2  22   2
M  END
>  <ID>  (1) 
conformer_0

$$$$
