
     RDKit          3D

 26 28  0  0  0  0  0  0  0  0999 V2000
   40.2054   37.2229   83.9108 C   0  0  0  0  0  0  0  0  0  0  0  0
   44.3974   38.7809   81.6149 C   0  0  0  0  0  0  0  0  0  0  0  0
   42.8320   36.6503   89.6897 C   0  0  0  0  0  0  0  0  0  0  0  0
   40.8334   38.0440   84.9599 C   0  0  0  0  0  0  0  0  0  0  0  0
   43.7439   35.4982   86.3490 C   0  0  0  0  0  0  0  0  0  0  0  0
   42.2218   36.5554   88.4235 C   0  0  0  0  0  0  0  0  0  0  0  0
   45.5401   35.6616   77.0886 C   0  0  0  0  0  0  0  0  0  0  0  0
   44.0250   39.6066   80.7264 O   0  0  0  0  0  0  0  0  0  0  0  0
   46.8997   35.9153   79.5537 O   0  0  0  0  0  0  0  0  0  0  0  0
   42.0606   36.1982   85.0499 C   0  0  0  0  0  3  0  0  0  0  0  0
   46.0619   35.9702   78.6323 C   0  0  0  0  0  0  0  0  0  0  0  0
   43.8821   40.8496   80.9176 C   0  0  0  0  0  0  0  0  0  0  0  0
   45.3433   37.1224   82.7069 C   0  0  0  0  0  0  0  0  0  0  0  0
   45.7304   35.0219   84.4354 O   0  0  0  0  0  1  0  0  0  0  0  0
   44.0540   39.6976   84.8404 O   0  0  0  0  0  0  0  0  0  0  0  0
   44.4691   38.3063   82.8742 C   0  0  0  0  0  0  0  0  0  0  0  0
   41.8354   37.4906   85.8553 C   0  0  0  0  0  0  0  0  0  0  0  0
   42.3635   37.5433   87.1129 N   0  0  0  0  0  0  0  0  0  0  0  0
   45.3056   36.8288   79.0785 N   0  0  0  0  0  0  0  0  0  0  0  0
   45.1579   37.2740   80.6638 C   0  0  0  0  0  0  0  0  0  0  0  0
   45.7840   36.2463   84.3828 S   0  0  0  0  0  4  0  0  0  0  0  0
   42.6278   38.3866   89.6115 C   0  0  0  0  0  0  0  0  0  0  0  0
   41.1024   35.9933   83.9334 C   0  0  0  0  0  0  0  0  0  0  0  0
   42.3436   38.6432   87.7063 C   0  0  0  0  0  0  0  0  0  0  0  0
   45.5111   36.5630   81.5343 C   0  0  0  0  0  0  0  0  0  0  0  0
   47.0672   36.6052   84.7257 O   0  0  0  0  0  1  0  0  0  0  0  0
  4  1  2  0
  6  3  1  0
  8  2  1  0
 10  5  1  0
 11  7  1  0
 11  9  2  0
 12  8  1  0
 16  2  2  0
 16 13  1  0
 17  4  1  0
 17 10  1  0
 17 15  1  0
 18  6  1  0
 18 17  1  0
 19 11  1  0
 20  2  1  0
 20 19  1  0
 21  5  1  0
 21 13  1  0
 21 14  1  0
 22  3  1  0
 23  1  1  0
 23 10  1  0
 24 18  1  0
 24 22  1  0
 25 13  2  0
 25 20  1  0
 26 21  1  0
M  RAD  3  10   2  14   2  26   2
M  END
>  <ID>  (1) 
conformer_0

$$$$
