
     RDKit          3D

 27 29  0  0  0  0  0  0  0  0999 V2000
   45.1548   37.6904   82.7806 C   0  0  0  0  0  0  0  0  0  0  0  0
   43.5354   35.9569   89.4455 C   0  0  0  0  0  0  0  0  0  0  0  0
   41.0565   38.2052   85.3397 C   0  0  0  0  0  0  0  0  0  0  0  0
   40.2841   37.5483   84.2356 C   0  0  0  0  0  0  0  0  0  0  0  0
   45.4020   35.5033   76.7067 C   0  0  0  0  0  0  0  0  0  0  0  0
   41.7435   37.1092   86.0958 C   0  0  0  0  0  0  0  0  0  0  0  0
   42.7988   39.1811   87.4299 C   0  0  0  0  0  0  0  0  0  0  0  0
   45.3859   36.5258   81.5547 C   0  0  0  0  0  0  0  0  0  0  0  0
   43.7480   39.5571   80.6395 O   0  0  0  0  0  0  0  0  0  0  0  0
   42.9401   37.1652   90.1893 C   0  0  0  0  0  0  0  0  0  0  0  0
   46.5747   35.5324   79.0365 O   0  0  0  0  0  0  0  0  0  0  0  0
   45.0060   37.0315   80.4368 C   0  0  0  0  0  0  0  0  0  0  0  0
   42.1984   36.7012   88.5190 C   0  0  0  0  0  0  0  0  0  0  0  0
   44.5073   39.0011   82.7558 C   0  0  0  0  0  0  0  0  0  0  0  0
   44.8823   36.9122   78.9961 N   0  0  0  0  0  0  0  0  0  0  0  0
   45.6431   35.9310   78.1136 C   0  0  0  0  0  0  0  0  0  0  0  0
   42.1993   37.5485   87.3897 N   0  0  0  0  0  0  0  0  0  0  0  0
   45.1226   35.1508   84.7078 O   0  0  0  0  0  0  0  0  0  0  0  0
   45.7824   36.3941   84.4028 S   0  0  0  0  0  4  0  0  0  0  0  0
   41.7124   35.8140   84.8884 C   0  0  0  0  0  0  0  0  0  0  0  0
   44.3540   38.6610   81.2356 C   0  0  0  0  0  0  0  0  0  0  0  0
   43.9840   40.9950   80.6143 C   0  0  0  0  0  0  0  0  0  0  0  0
   47.0642   36.0593   84.4782 O   0  0  0  0  0  0  0  0  0  0  0  0
   43.6691   40.0056   85.2756 C   0  0  0  0  0  0  0  0  0  0  0  0
   42.8038   38.6746   89.3938 C   0  0  0  0  0  0  0  0  0  0  0  0
   40.8335   36.3317   83.7224 C   0  0  0  0  0  0  0  0  0  0  0  0
   45.6178   37.9879   84.8810 O   0  0  0  0  0  0  0  0  0  0  0  0
  4  3  2  0
  6  3  1  0
  8  1  2  0
 10  2  1  0
 12  8  1  0
 13  2  1  0
 13 10  1  0
 14  1  1  0
 15 12  1  0
 16  5  1  0
 16 11  2  0
 16 15  1  0
 17  6  1  0
 17  7  1  0
 17 13  1  0
 19  1  1  0
 19 18  1  0
 20  6  1  0
 21  9  1  0
 21 12  2  0
 21 14  1  0
 22  9  1  0
 23 19  1  0
 24  7  1  0
 24 14  1  0
 25 10  1  0
 26  4  1  0
 26 20  2  0
 27 19  1  0
M  END
>  <ID>  (1) 
conformer_0

$$$$
