
     RDKit          3D

 27 29  0  0  0  0  0  0  0  0999 V2000
   40.6738   38.0614   85.5868 C   0  0  0  0  0  0  0  0  0  0  0  0
   44.2792   38.8247   81.2369 C   0  0  0  0  0  0  0  0  0  0  0  0
   40.0011   37.5790   84.3552 C   0  0  0  0  0  0  0  0  0  0  0  0
   43.4963   38.3899   89.6428 C   0  0  0  0  0  0  0  0  0  0  0  0
   44.9415   37.3040   80.6792 C   0  0  0  0  0  0  0  0  0  0  0  0
   44.0053   39.8098   80.4311 O   0  0  0  0  0  0  0  0  0  0  0  0
   46.4259   35.9240   79.4377 O   0  0  0  0  0  0  0  0  0  0  0  0
   41.8265   36.2457   85.0267 C   0  0  0  0  0  0  0  0  0  0  0  0
   42.3802   37.6201   87.5372 N   0  0  0  0  0  0  0  0  0  0  0  0
   45.6855   36.0875   78.6143 C   0  0  0  0  0  0  0  0  0  0  0  0
   46.7521   36.6153   85.2003 O   0  0  0  0  0  1  0  0  0  0  0  0
   42.6410   38.8668   88.0685 C   0  0  0  0  0  0  0  0  0  0  0  0
   41.8555   37.3423   86.1533 C   0  0  0  0  0  0  0  0  0  0  0  0
   44.1339   40.9671   80.0645 C   0  0  0  0  0  0  0  0  0  0  0  0
   45.0422   38.8957   84.7591 O   0  0  0  0  0  0  0  0  0  0  0  0
   45.6516   36.2016   84.5012 S   0  0  0  0  0  4  0  0  0  0  0  0
   45.0346   36.4740   81.4726 C   0  0  0  0  0  0  0  0  0  0  0  0
   43.8780   40.0891   84.9459 C   0  0  0  0  0  0  0  0  0  0  0  0
   45.9298   34.8025   83.7694 O   0  0  0  0  0  1  0  0  0  0  0  0
   43.1281   36.4752   89.7258 C   0  0  0  0  0  0  0  0  0  0  0  0
   44.8596   38.0484   83.2552 C   0  0  0  0  0  0  0  0  0  0  0  0
   45.4361   35.7638   77.1882 C   0  0  0  0  0  0  0  0  0  0  0  0
   40.6943   36.3941   83.9738 C   0  0  0  0  0  0  0  0  0  0  0  0
   42.2229   36.6586   88.5982 C   0  0  0  0  0  0  0  0  0  0  0  0
   44.3282   38.7859   82.5701 C   0  0  0  0  0  0  0  0  0  0  0  0
   45.2941   36.4484   82.6107 C   0  0  0  0  0  0  0  0  0  0  0  0
   43.9763   35.5052   86.6211 C   0  0  0  0  0  0  0  0  0  0  0  0
  3  1  2  0
  5  2  2  0
  6  2  1  0
  7  5  1  0
 10  7  1  0
 12  4  1  0
 12  9  1  0
 13  1  1  0
 13  8  1  0
 13  9  1  0
 14  6  1  0
 16 11  1  0
 17  5  1  0
 18 15  1  0
 19 16  1  0
 20  4  1  0
 21 15  1  0
 22 10  1  0
 23  3  1  0
 23  8  2  0
 24  9  1  0
 24 20  1  0
 25  2  1  0
 25 21  2  0
 26 16  1  0
 26 17  2  0
 26 21  1  0
 27 16  1  0
 27 20  1  0
M  RAD  2  11   2  19   2
M  END
>  <ID>  (1) 
conformer_0

$$$$
