
     RDKit          3D

 29 31  0  0  0  0  0  0  0  0999 V2000
   44.3230   38.6173   80.9838 C   0  0  0  0  0  0  0  0  0  0  0  0
   42.5126   36.6061   89.6818 C   0  0  0  0  0  0  0  0  0  0  0  0
   40.7969   35.9499   83.8006 C   0  0  0  0  0  0  0  0  0  0  0  0
   41.0352   37.9065   84.9349 C   0  0  0  0  0  3  0  0  0  0  0  0
   45.5564   36.2198   76.6840 C   0  0  0  0  0  0  0  0  0  0  0  0
   44.8568   38.1412   82.7344 C   0  0  0  0  0  0  0  0  0  0  0  0
   44.1989   41.0168   80.3465 C   0  0  0  0  0  0  0  0  0  0  0  0
   42.6918   38.6710   87.8497 C   0  0  0  0  0  0  0  0  0  0  0  0
   47.3194   36.4070   84.7582 O   0  0  0  0  0  0  0  0  0  0  0  0
   42.4498   37.3850   86.9509 N   0  0  0  0  0  0  0  0  0  0  0  0
   46.0263   36.3046   84.4322 S   0  0  0  0  0  6  0  0  0  0  0  0
   46.5545   35.8510   79.3011 O   0  0  0  0  0  0  0  0  0  0  0  0
   45.5619   36.3421   81.6313 C   0  0  0  0  0  0  0  0  0  0  0  0
   45.7239   36.2055   78.3239 C   0  0  0  0  0  0  0  0  0  0  0  0
   44.9083   37.0898   79.1381 N   0  0  0  0  0  0  0  0  0  0  0  0
   43.9227   39.5996   80.5778 O   0  0  0  0  0  0  0  0  0  0  0  0
   41.9511   37.0425   85.8369 C   0  0  0  0  0  0  0  0  0  0  0  0
   41.8278   35.9289   85.0295 C   0  0  0  0  0  0  0  0  0  0  0  0
   42.5769   38.1117   89.9615 C   0  0  0  0  0  0  0  0  0  0  0  0
   45.8996   34.7962   83.9207 O   0  0  0  0  0  0  0  0  0  0  0  0
   41.8845   36.5072   88.2681 C   0  0  0  0  0  0  0  0  0  0  0  0
   44.4307   38.4904   82.9214 C   0  0  0  0  0  0  0  0  0  0  0  0
   44.2353   35.3281   86.0134 C   0  0  0  0  0  0  0  0  0  0  0  0
   45.1378   37.0291   80.6474 C   0  0  0  0  0  0  0  0  0  0  0  0
   43.4656   38.8940   85.4078 C   0  0  0  0  0  0  0  0  0  0  0  0
   40.1874   37.2344   83.9429 C   0  0  0  0  0  0  0  0  0  0  0  0
   46.1888   38.2046   85.2591 O   0  0  0  0  0  0  0  0  0  0  0  0
   45.6257   36.5683   82.9230 C   0  0  0  0  0  0  0  0  0  0  0  0
   43.7456   38.2361   89.0408 C   0  0  0  0  0  0  0  0  0  0  0  0
  6  1  2  0
 10  8  1  0
 11  9  1  0
 14  5  1  0
 14 12  2  0
 15 14  1  0
 16  1  1  0
 16  7  1  0
 17  4  1  0
 17 10  1  0
 18  3  2  0
 18 17  1  0
 19  2  1  0
 20 11  1  0
 21  2  1  0
 21 10  1  0
 22  6  1  0
 23 11  1  0
 24  1  1  0
 24 13  1  0
 24 15  1  0
 25 17  1  0
 25 22  1  0
 26  3  1  0
 26  4  1  0
 27 11  1  0
 28  6  1  0
 28 11  1  0
 28 13  2  0
 29  8  1  0
 29 19  1  0
M  RAD  1   4   2
M  END
>  <ID>  (1) 
conformer_0

$$$$
