
     RDKit          3D

 28 30  0  0  0  0  0  0  0  0999 V2000
   39.8944   37.3145   84.1526 C   0  0  0  0  0  0  0  0  0  0  0  0
   43.1352   36.5535   89.7777 C   0  0  0  0  0  0  0  0  0  0  0  0
   44.9622   38.1012   83.4496 C   0  0  0  0  0  0  0  0  0  0  0  0
   40.3974   37.7973   85.5211 C   0  0  0  0  0  0  0  0  0  0  0  0
   45.7612   36.1356   78.2761 C   0  0  0  0  0  0  0  0  0  0  0  0
   44.4631   38.7215   81.0637 C   0  0  0  0  0  0  0  0  0  0  0  0
   44.4550   38.9125   82.3322 C   0  0  0  0  0  0  0  0  0  0  0  0
   44.2081   39.7604   80.1918 O   0  0  0  0  0  0  0  0  0  0  0  0
   47.0455   36.6553   85.0241 O   0  0  0  0  0  0  0  0  0  0  0  0
   44.0548   40.9488   80.4430 C   0  0  0  0  0  0  0  0  0  0  0  0
   41.6742   36.9378   88.7951 C   0  0  0  0  0  0  0  0  0  0  0  0
   45.7884   36.4493   84.6789 S   0  0  0  0  0  4  0  0  0  0  0  0
   41.9381   37.2770   87.6316 N   0  0  0  0  0  0  0  0  0  0  0  0
   46.6268   35.5792   79.1016 O   0  0  0  0  0  0  0  0  0  0  0  0
   43.8216   39.3473   85.0731 C   0  0  0  0  0  0  0  0  0  0  0  0
   44.8965   37.0920   79.3217 N   0  0  0  0  0  0  0  0  0  0  0  0
   45.6057   39.1067   85.2470 O   0  0  0  0  0  0  0  0  0  0  0  0
   40.9680   36.3233   83.7020 C   0  0  0  0  0  0  0  0  0  0  0  0
   45.4839   36.3511   76.5831 C   0  0  0  0  0  0  0  0  0  0  0  0
   41.5881   37.0355   86.1330 C   0  0  0  0  0  0  0  0  0  0  0  0
   45.2524   35.2252   84.9594 O   0  0  0  0  0  0  0  0  0  0  0  0
   42.4917   37.8196   89.9147 C   0  0  0  0  0  0  0  0  0  0  0  0
   45.2175   36.5903   81.7052 C   0  0  0  0  0  0  0  0  0  0  0  0
   41.8767   36.6249   85.0443 C   0  0  0  0  0  0  0  0  0  0  0  0
   44.9831   37.1736   80.6314 C   0  0  0  0  0  0  0  0  0  0  0  0
   45.3850   36.7089   82.8221 C   0  0  0  0  0  0  0  0  0  0  0  0
   44.1816   38.3116   84.5920 N   0  0  0  0  0  0  0  0  0  0  0  0
   42.4534   38.5394   87.1690 C   0  0  0  0  0  0  0  0  0  0  0  0
  4  1  2  0
  7  3  1  0
  7  6  2  0
  8  6  1  0
 10  8  1  0
 11  2  1  0
 12  9  1  0
 13 11  1  0
 14  5  2  0
 16  5  1  0
 18  1  1  0
 19  5  1  0
 20  4  1  0
 20 13  1  0
 21 12  1  0
 22  2  1  0
 22 11  1  0
 24 18  1  0
 24 20  2  0
 25  6  1  0
 25 16  1  0
 25 23  2  0
 26  3  2  0
 26 12  1  0
 26 23  1  0
 27  3  1  0
 27 15  1  0
 27 17  1  0
 28 13  1  0
 28 15  1  0
M  END
>  <ID>  (1) 
conformer_0

$$$$
