
     RDKit          3D

 30 32  0  0  0  0  0  0  0  0999 V2000
   41.6018   35.7284   84.2502 C   0  0  0  0  0  0  0  0  0  0  0  0
   45.2868   37.9158   83.4284 C   0  0  0  0  0  0  0  0  0  0  0  0
   43.0146   38.4680   89.4447 C   0  0  0  0  0  0  0  0  0  0  0  0
   40.8079   38.2193   85.3974 C   0  0  0  0  0  0  0  0  0  0  0  0
   45.5412   36.5747   76.5213 C   0  0  0  0  0  0  0  0  0  0  0  0
   44.0501   39.9572   85.1738 C   0  0  0  0  0  0  0  0  0  0  0  0
   45.0299   39.0740   84.2617 O   0  0  0  0  0  0  0  0  0  0  0  0
   41.5872   37.1843   88.6513 C   0  0  0  0  0  0  0  0  0  0  0  0
   41.7814   37.2870   86.0691 C   0  0  0  0  0  0  0  0  0  0  0  0
   42.1189   37.5940   87.1365 N   0  0  0  0  0  0  0  0  0  0  0  0
   45.0280   37.2079   80.4752 C   0  0  0  0  0  0  0  0  0  0  0  0
   46.6769   35.8711   78.9301 O   0  0  0  0  0  0  0  0  0  0  0  0
   45.7459   36.3351   78.1264 C   0  0  0  0  0  0  0  0  0  0  0  0
   44.9375   37.1032   79.2119 N   0  0  0  0  0  0  0  0  0  0  0  0
   45.1642   36.2141   81.3892 C   0  0  0  0  0  0  0  0  0  0  0  0
   43.6274   35.2560   86.4358 C   0  0  0  0  0  0  0  0  0  0  0  0
   42.1639   36.1847   85.5010 C   0  0  0  0  0  0  0  0  0  0  0  0
   44.0857   39.5901   80.4373 O   0  0  0  0  0  0  0  0  0  0  0  0
   47.2434   36.4787   84.6618 O   0  0  0  0  0  0  0  0  0  0  0  0
   45.6320   35.8529   84.2314 S   0  0  0  0  0  6  0  0  0  0  0  0
   45.4694   36.5203   82.6307 C   0  0  0  0  0  3  0  0  0  0  0  0
   45.7318   34.4322   83.6265 O   0  0  0  0  0  0  0  0  0  0  0  0
   43.7840   40.8201   81.1179 C   0  0  0  0  0  0  0  0  0  0  0  0
   42.3033   37.1764   89.8349 C   0  0  0  0  0  0  0  0  0  0  0  0
   44.4748   38.4338   81.7415 C   0  0  0  0  0  0  0  0  0  0  0  0
   40.0604   37.5787   84.4274 C   0  0  0  0  0  0  0  0  0  0  0  0
   42.7518   39.0171   87.2912 C   0  0  0  0  0  0  0  0  0  0  0  0
   44.5795   38.7121   81.7841 C   0  0  0  0  0  0  0  0  0  0  0  0
   45.4237   35.9587   85.4131 O   0  0  0  0  0  0  0  0  0  0  0  0
   40.5587   36.6340   83.6201 C   0  0  0  0  0  0  0  0  0  0  0  0
  7  2  1  0
  7  6  1  0
  9  4  2  0
 10  8  1  0
 10  9  1  0
 13  5  1  0
 13 12  2  0
 14 11  1  0
 14 13  1  0
 15 11  2  0
 17  1  2  0
 17  9  1  0
 17 16  1  0
 20  2  1  0
 20 16  1  0
 20 19  1  0
 21  2  1  0
 21 15  1  0
 21 20  1  0
 22 20  1  0
 23 18  1  0
 24  3  1  0
 24  8  1  0
 25  2  1  0
 25 11  1  0
 26  4  1  0
 27 10  1  0
 28 18  1  0
 28 25  1  0
 29 20  1  0
 30  1  1  0
 30 26  2  0
M  RAD  1  21   2
M  END
>  <ID>  (1) 
conformer_0

$$$$
