
     RDKit          3D

 30 31  0  0  0  0  0  0  0  0999 V2000
   41.0270   37.9844   85.1181 C   0  0  0  0  0  0  0  0  0  0  0  0
   45.0261   37.3143   80.5650 C   0  0  0  0  0  0  0  0  0  0  0  0
   43.1247   38.0089   89.4882 C   0  0  0  0  0  0  0  0  0  0  0  0
   40.3901   37.2212   84.0332 C   0  0  0  0  0  0  0  0  0  0  0  0
   41.4420   36.7633   88.7742 C   0  0  0  0  0  0  0  0  0  0  0  0
   44.1241   39.7202   80.1412 O   0  0  0  0  0  0  0  0  0  0  0  0
   45.4252   36.6124   82.6362 C   0  0  0  0  0  0  0  0  0  0  0  0
   45.9220   36.0498   78.4513 C   0  0  0  0  0  0  0  0  0  0  0  0
   41.9258   37.2261   86.0211 C   0  0  1  0  0  0  0  0  0  0  0  0
   45.0128   36.9810   79.1437 N   0  0  0  0  0  0  0  0  0  0  0  0
   44.7225   38.7199   84.4902 O   0  0  0  0  0  0  0  0  0  0  0  0
   45.4506   35.7310   77.0542 C   0  0  0  0  0  0  0  0  0  0  0  0
   43.7572   39.2251   85.8424 C   0  0  0  0  0  0  0  0  0  0  0  0
   46.8929   36.9175   84.9366 O   0  0  0  0  0  1  0  0  0  0  0  0
   45.5977   36.2934   84.4264 S   0  0  0  0  0  4  0  0  0  0  0  0
   46.8650   35.8264   78.9409 O   0  0  0  0  0  0  0  0  0  0  0  0
   41.9838   37.5569   87.2814 N   0  0  0  0  0  0  0  0  0  0  0  0
   45.5166   36.3580   81.2716 C   0  0  0  0  0  0  0  0  0  0  0  0
   42.1556   36.1598   85.1789 C   0  0  0  0  0  0  0  0  0  0  0  0
   43.9384   40.9582   80.3798 C   0  0  0  0  0  0  0  0  0  0  0  0
   44.7388   38.1051   83.2153 C   0  0  0  0  0  0  0  0  0  0  0  0
   42.2741   38.6462   88.1713 C   0  0  0  0  0  0  0  0  0  0  0  0
   44.3750   35.6939   86.3356 C   0  0  0  0  0  0  0  0  0  0  0  0
   44.0615   39.9181   82.3721 O   0  0  0  0  0  0  0  0  0  0  0  0
   42.5836   36.9259   90.0954 C   0  0  0  0  0  0  0  0  0  0  0  0
   41.2340   35.9718   83.9246 C   0  0  0  0  0  0  0  0  0  0  0  0
   45.8138   35.1706   84.4554 O   0  0  0  0  0  1  0  0  0  0  0  0
   44.3935   38.9560   81.3501 C   0  0  0  0  0  0  0  0  0  0  0  0
   43.5264   40.6191   83.4904 C   0  0  0  0  0  0  0  0  0  0  0  0
   44.4956   38.4162   81.9661 C   0  0  1  0  0  0  0  0  0  0  0  0
  4  1  1  0
  9  1  1  0
 10  2  1  0
 10  8  1  0
 12  8  1  0
 13 11  1  0
 15  7  1  0
 15 14  1  0
 16  8  2  0
 17  5  1  0
 17  9  1  0
 18  2  2  0
 18  7  1  0
  9 19  1  1
 20  6  1  0
 21  7  2  0
 21 11  1  0
 22  3  1  0
 22 17  1  0
 23 15  1  0
 25  3  1  0
 25  5  1  0
 26  4  2  3
 26 23  1  0
 27 15  1  0
 28  6  1  0
 28 24  1  0
 29 24  1  0
 30  2  1  0
 30 21  1  0
 30 28  1  6
M  RAD  2  14   2  27   2
M  END
>  <ID>  (1) 
conformer_0

$$$$
