
     RDKit          3D

 25 26  0  0  0  0  0  0  0  0999 V2000
   40.1780   37.3212   84.2532 C   0  0  0  0  0  0  0  0  0  0  0  0
   42.4829   37.9313   89.8366 C   0  0  0  0  0  0  0  0  0  0  0  0
   45.3865   36.8989   81.1533 C   0  0  0  0  0  0  0  0  0  0  0  0
   40.8472   37.8635   85.3649 C   0  0  0  0  0  0  0  0  0  0  0  0
   44.5590   38.9296   82.4747 C   0  0  0  0  0  0  0  0  0  0  0  0
   45.6278   35.9330   77.0839 C   0  0  0  0  0  0  0  0  0  0  0  0
   42.0181   37.1086   85.9226 C   0  0  0  0  0  0  0  0  0  0  0  0
   45.5197   37.6069   83.0762 C   0  0  0  0  0  0  0  0  0  0  0  0
   42.4974   37.2546   87.0846 N   0  0  0  0  0  0  0  0  0  0  0  0
   44.1153   39.6153   80.0167 O   0  0  0  0  0  0  0  0  0  0  0  0
   45.5367   35.1913   84.4317 O   0  0  0  0  0  0  0  0  0  0  0  0
   42.5697   36.4630   88.1799 C   0  0  0  0  0  0  0  0  0  0  0  0
   44.0572   40.7789   80.6027 C   0  0  0  0  0  0  0  0  0  0  0  0
   44.8409   37.0933   79.2956 N   0  0  0  0  0  0  0  0  0  0  0  0
   45.6804   36.0462   78.3004 C   0  0  0  0  0  0  0  0  0  0  0  0
   45.9454   36.7820   84.3024 S   0  0  0  0  0  6  0  0  0  0  0  0
   43.0816   38.7197   87.1447 C   0  0  0  0  0  0  0  0  0  0  0  0
   42.1047   36.2305   84.6204 C   0  0  0  0  0  0  0  0  0  0  0  0
   45.5592   38.4588   85.1515 O   0  0  0  0  0  0  0  0  0  0  0  0
   42.7435   36.6574   89.6626 C   0  0  0  0  0  0  0  0  0  0  0  0
   45.6916   36.8068   81.8183 C   0  0  0  0  0  0  0  0  0  0  0  0
   47.1537   36.5766   84.7573 O   0  0  0  0  0  0  0  0  0  0  0  0
   44.6961   38.3934   80.8450 C   0  0  0  0  0  0  0  0  0  0  0  0
   46.2268   35.8629   79.4567 O   0  0  0  0  0  0  0  0  0  0  0  0
   40.9143   36.2743   83.5987 C   0  0  0  0  0  0  0  0  0  0  0  0
  4  1  2  0
  7  4  1  0
  8  5  2  0
  9  7  1  0
 12  9  1  0
 13 10  1  0
 14  3  1  0
 15  6  1  0
 15 14  1  0
 16  8  1  0
 16 11  1  0
 17  9  1  0
 18  7  2  0
 18 16  1  0
 19 16  1  0
 20  2  1  0
 20 12  1  0
 21  3  2  0
 21  8  1  0
 22 16  1  0
 23  3  1  0
 23  5  1  0
 23 10  1  0
 24 15  2  0
 25  1  1  0
 25 18  1  0
M  END
>  <ID>  (1) 
conformer_0

$$$$
