
     RDKit          3D

 26 27  0  0  0  0  0  0  0  0999 V2000
   44.5778   39.1038   81.9531 C   0  0  0  0  0  0  0  0  0  0  0  0
   40.6485   37.9723   85.4093 C   0  0  0  0  0  0  0  0  0  0  0  0
   42.4513   38.2434   90.0015 C   0  0  0  0  0  0  0  0  0  0  0  0
   40.1180   37.4391   84.2027 C   0  0  0  0  0  0  0  0  0  0  0  0
   42.1588   36.6189   85.6111 C   0  0  0  0  0  0  0  0  0  0  0  0
   45.2910   37.8312   83.0932 C   0  0  0  0  0  0  0  0  0  0  0  0
   45.7340   35.9609   78.7539 C   0  0  0  0  0  0  0  0  0  0  0  0
   45.1872   39.0577   84.6821 O   0  0  0  0  0  0  0  0  0  0  0  0
   44.0923   40.0520   80.2044 O   0  0  0  0  0  0  0  0  0  0  0  0
   47.1229   36.6869   84.5887 O   0  0  0  0  0  1  0  0  0  0  0  0
   42.1196   38.5808   87.8960 C   0  0  0  0  0  0  0  0  0  0  0  0
   44.8355   36.8256   79.2873 N   0  0  0  0  0  0  0  0  0  0  0  0
   46.7542   35.6783   79.1290 O   0  0  0  0  0  0  0  0  0  0  0  0
   45.7694   36.4599   84.5213 S   0  0  0  0  0  4  0  0  0  0  0  0
   43.2225   35.5612   86.5184 C   0  0  0  0  0  0  0  0  0  0  0  0
   45.0818   37.1913   81.5598 C   0  0  0  0  0  0  0  0  0  0  0  0
   45.3578   35.7500   76.8094 C   0  0  0  0  0  0  0  0  0  0  0  0
   43.8013   41.2618   80.8811 C   0  0  0  0  0  0  0  0  0  0  0  0
   42.1013   37.2418   87.5075 N   0  0  0  0  0  0  0  0  0  0  0  0
   42.8445   36.8059   89.9558 C   0  0  0  0  0  0  0  0  0  0  0  0
   41.4408   37.2327   86.2619 C   0  0  0  0  0  0  0  0  0  0  0  0
   45.3544   35.1340   84.5141 O   0  0  0  0  0  1  0  0  0  0  0  0
   44.8523   37.7447   80.9348 C   0  0  0  0  0  0  0  0  0  0  0  0
   40.6883   36.3522   83.6116 C   0  0  0  0  0  0  0  0  0  0  0  0
   41.9445   35.8789   84.3887 C   0  0  0  0  0  0  0  0  0  0  0  0
   41.7565   36.5337   88.7057 C   0  0  0  0  0  0  0  0  0  0  0  0
  4  2  2  0
  6  1  1  0
  8  6  1  0
  9  1  1  0
 12  7  1  0
 13  7  2  0
 14  6  1  0
 14 10  1  0
 15  5  1  0
 16  6  1  0
 17  7  1  0
 18  9  1  0
 19 11  1  0
 20  3  1  0
 21  2  1  0
 21  5  2  0
 21 19  1  0
 22 14  1  0
 23  1  1  0
 23 12  1  0
 23 16  2  0
 24  4  1  0
 25  5  1  0
 25 14  1  0
 25 24  2  0
 26 19  1  0
 26 20  1  0
M  RAD  2  10   2  22   2
M  END
>  <ID>  (1) 
conformer_0

$$$$
