
     RDKit          3D

 29 32  0  0  0  0  0  0  0  0999 V2000
   42.1217   36.3600   84.7726 C   0  0  0  0  0  0  0  0  0  0  0  0
   42.8737   36.2040   89.3990 C   0  0  0  0  0  0  0  0  0  0  0  0
   44.9802   38.2793   83.1202 C   0  0  0  0  0  0  0  0  0  0  0  0
   40.0550   37.4291   84.2415 C   0  0  0  0  0  0  0  0  0  0  0  0
   44.5994   38.8508   81.9049 C   0  0  0  0  0  3  0  0  0  0  0  0
   45.4442   35.8860   76.8206 C   0  0  0  0  0  0  0  0  0  0  0  0
   44.1219   39.7855   79.8226 O   0  0  0  0  0  0  0  0  0  0  0  0
   45.4189   36.7244   82.5522 C   0  0  0  0  0  0  0  0  0  0  0  0
   41.7390   37.9727   88.6814 C   0  0  0  0  0  0  0  0  0  0  0  0
   46.8019   35.9794   79.1563 O   0  0  0  0  0  0  0  0  0  0  0  0
   42.0662   37.4102   87.3212 N   0  0  0  0  0  0  0  0  0  0  0  0
   43.9693   40.9395   80.4633 C   0  0  0  0  0  0  0  0  0  0  0  0
   41.7872   36.9947   86.0074 C   0  0  0  0  0  0  0  0  0  0  0  0
   44.9053   37.0714   79.0529 N   0  0  0  0  0  0  0  0  0  0  0  0
   45.4502   38.8839   84.9308 O   0  0  0  0  0  0  0  0  0  0  0  0
   45.7412   36.2674   78.2045 C   0  0  0  0  0  0  0  0  0  0  0  0
   45.2767   36.4248   81.4806 C   0  0  0  0  0  0  0  0  0  0  0  0
   40.7698   38.0246   85.4167 C   0  0  0  0  0  0  0  0  0  0  0  0
   45.5864   36.4250   84.1419 S   0  0  0  0  0  6  0  0  0  0  0  0
   46.1225   34.7943   83.5882 O   0  0  0  0  0  0  0  0  0  0  0  0
   42.5627   35.7578   87.9795 C   0  0  0  0  0  0  0  0  0  0  0  0
   42.5656   37.2935   90.2069 C   0  0  0  0  0  0  0  0  0  0  0  0
   40.9175   36.3228   83.7293 C   0  0  0  0  0  0  0  0  0  0  0  0
   46.9305   36.8436   84.6906 O   0  0  0  0  0  0  0  0  0  0  0  0
   44.4375   38.8005   80.7057 C   0  0  0  0  0  0  0  0  0  0  0  0
   42.7685   39.1945   86.6791 C   0  0  0  0  0  0  0  0  0  0  0  0
   44.9586   35.6547   85.3044 O   0  0  0  0  0  0  0  0  0  0  0  0
   45.1553   37.1020   80.3184 C   0  0  0  0  0  0  0  0  0  0  0  0
   43.0021   38.9012   88.8943 C   0  0  0  0  0  0  0  0  0  0  0  0
  5  3  1  0
  8  3  1  0
 11  9  1  0
 12  7  1  0
 13  1  2  0
 13 11  1  0
 15  3  1  0
 16  6  1  0
 16 10  2  0
 16 14  1  0
 17  8  2  0
 18  4  2  0
 18 13  1  0
 19  1  1  0
 19  3  1  0
 19  8  1  0
 20 19  1  0
 21  2  1  0
 21 11  1  0
 22  2  1  0
 22  9  1  0
 23  1  1  0
 23  4  1  0
 24 19  1  0
 25  5  1  0
 25  7  1  0
 27 19  1  0
 28 14  1  0
 28 17  1  0
 28 25  2  0
 29  9  1  0
 29 26  1  0
M  RAD  1   5   2
M  END
>  <ID>  (1) 
conformer_0

$$$$
