
     RDKit          3D

 24 25  0  0  0  0  0  0  0  0999 V2000
   40.1021   37.2121   83.8003 C   0  0  0  0  0  0  0  0  0  0  0  0
   44.9224   38.3912   82.9361 C   0  0  0  0  0  0  0  0  0  0  0  0
   42.9334   36.9955   89.9634 C   0  0  0  0  0  0  0  0  0  0  0  0
   40.7132   37.9854   84.9006 C   0  0  0  0  0  0  0  0  0  0  0  0
   45.5148   36.1453   76.7494 C   0  0  0  0  0  0  0  0  0  0  0  0
   44.6285   37.9981   80.8260 C   0  0  0  0  0  0  0  0  0  0  0  0
   42.0870   36.8385   88.3253 C   0  0  0  0  0  0  0  0  0  0  0  0
   45.4492   36.3614   81.4468 C   0  0  0  0  0  3  0  0  0  0  0  0
   43.9202   39.4667   80.1049 O   0  0  0  0  0  0  0  0  0  0  0  0
   42.9419   38.5637   89.4865 C   0  0  0  0  0  0  0  0  0  0  0  0
   46.6867   35.7962   79.2303 O   0  0  0  0  0  0  0  0  0  0  0  0
   46.6136   36.2916   84.9121 O   0  0  0  0  0  1  0  0  0  0  0  0
   44.0954   40.8319   80.2359 C   0  0  0  0  0  0  0  0  0  0  0  0
   45.1170   39.1981   84.8456 O   0  0  0  0  0  0  0  0  0  0  0  0
   45.7628   36.1839   78.3616 C   0  0  0  0  0  0  0  0  0  0  0  0
   41.7636   37.1113   85.7067 C   0  0  0  0  0  0  0  0  0  0  0  0
   44.8349   37.1542   79.1273 N   0  0  0  0  0  0  0  0  0  0  0  0
   41.7630   36.0699   84.9228 C   0  0  0  0  0  0  0  0  0  0  0  0
   42.1953   37.5215   86.9630 N   0  0  0  0  0  0  0  0  0  0  0  0
   45.8622   36.4722   84.4571 S   0  0  0  0  0  3  0  0  0  0  0  0
   44.3939   38.9386   82.0307 C   0  0  0  0  0  0  0  0  0  0  0  0
   42.5350   38.8476   87.2688 C   0  0  0  0  0  0  0  0  0  0  0  0
   45.5224   36.8725   82.6400 C   0  0  0  0  0  0  0  0  0  0  0  0
   40.8840   35.9607   83.6763 C   0  0  0  0  0  0  0  0  0  0  0  0
  4  1  2  0
  7  3  1  0
  8  6  1  0
  9  6  1  0
 10  3  1  0
 13  9  1  0
 14  2  1  0
 15  5  1  0
 15 11  2  0
 16  4  1  0
 17  6  1  0
 17 15  1  0
 18 16  2  0
 19  7  1  0
 19 16  1  0
 20 12  1  0
 21  2  2  0
 21  6  1  0
 22 14  1  0
 22 19  1  0
 23  2  1  0
 23  8  1  0
 23 20  1  0
 24  1  1  0
 24 18  1  0
M  RAD  3   8   2  12   2  20   2
M  END
>  <ID>  (1) 
conformer_0

$$$$
