
     RDKit          3D

 22 24  0  0  0  0  0  0  0  0999 V2000
   43.0660   37.7037   89.3365 C   0  0  0  0  0  0  0  0  0  0  0  0
   41.7915   36.1251   84.8020 C   0  0  0  0  0  0  0  0  0  0  0  0
   44.9733   37.3565   80.5184 C   0  0  0  0  0  0  0  0  0  0  0  0
   40.6177   36.8422   84.0962 C   0  0  0  0  0  0  0  0  0  0  0  0
   45.4197   36.5926   81.7487 C   0  0  0  0  0  0  0  0  0  0  0  0
   42.0172   36.8832   88.4362 C   0  0  0  0  0  0  0  0  0  0  0  0
   45.6859   35.6220   77.4184 C   0  0  0  0  0  0  0  0  0  0  0  0
   44.0871   39.6530   80.7317 O   0  0  0  0  0  0  0  0  0  0  0  0
   45.7300   36.4934   84.5001 S   0  0  0  0  0  4  0  0  0  0  0  0
   41.8162   36.9565   86.1665 C   0  0  0  0  0  0  0  0  0  0  0  0
   45.2553   37.3111   83.0477 C   0  0  0  0  0  0  0  0  0  0  0  0
   45.7804   36.3969   78.1477 C   0  0  0  0  0  0  0  0  0  0  0  0
   46.5517   36.7841   85.1698 O   0  0  0  0  0  1  0  0  0  0  0  0
   43.8668   40.9938   80.8633 C   0  0  0  0  0  0  0  0  0  0  0  0
   46.2440   36.4338   79.1764 O   0  0  0  0  0  0  0  0  0  0  0  0
   40.6160   37.8087   85.1471 C   0  0  0  0  0  0  0  0  0  0  0  0
   42.3485   37.4940   87.1018 N   0  0  0  0  0  0  0  0  0  0  0  0
   44.6544   38.5359   82.6906 C   0  0  0  0  0  0  0  0  0  0  0  0
   43.0586   38.6996   87.3211 C   0  0  0  0  0  0  0  0  0  0  0  0
   42.7178   36.4680   89.7312 C   0  0  0  0  0  0  0  0  0  0  0  0
   44.5049   38.8110   81.4931 C   0  0  0  0  0  0  0  0  0  0  0  0
   45.8054   35.0481   84.3030 O   0  0  0  0  0  1  0  0  0  0  0  0
  4  2  1  0
  5  3  2  0
  6  1  1  0
  9  2  1  0
 10  2  1  0
 11  5  1  0
 11  9  1  0
 12  3  1  0
 12  7  1  0
 13  9  1  0
 14  8  1  0
 15 12  1  0
 16  4  1  0
 16 10  2  0
 17  6  1  0
 17 10  1  0
 18 11  2  0
 19 17  1  0
 20  1  1  0
 20  6  1  0
 21  3  1  0
 21  8  1  0
 21 18  1  0
 22  9  1  0
M  RAD  2  13   2  22   2
M  END
>  <ID>  (1) 
conformer_0

$$$$
