
     RDKit          3D

 28 30  0  0  0  0  0  0  0  0999 V2000
   40.0429   37.5382   84.4007 C   0  0  0  0  0  0  0  0  0  0  0  0
   44.9836   37.3008   80.5156 C   0  0  0  0  0  0  0  0  0  0  0  0
   42.7079   38.5610   89.6005 C   0  0  0  0  0  0  0  0  0  0  0  0
   40.6657   38.0431   85.5641 C   0  0  0  0  0  0  0  0  0  0  0  0
   45.1687   37.5370   82.9478 C   0  0  0  0  0  0  0  0  0  0  0  0
   41.8719   37.1111   86.0525 C   0  0  0  0  0  0  0  0  0  0  0  0
   42.4635   38.9683   87.7033 C   0  0  0  0  0  0  0  0  0  0  0  0
   44.0317   39.4723   80.1516 O   0  0  0  0  0  0  0  0  0  0  0  0
   46.6700   36.0712   79.2498 O   0  0  0  0  0  0  0  0  0  0  0  0
   43.9012   40.8766   80.3382 C   0  0  0  0  0  0  0  0  0  0  0  0
   42.2283   37.3006   87.2742 N   0  0  0  0  0  0  0  0  0  0  0  0
   45.5994   35.6251   77.0998 C   0  0  0  0  0  0  0  0  0  0  0  0
   45.4106   36.5312   81.5602 C   0  0  0  0  0  0  0  0  0  0  0  0
   45.4345   34.6373   83.6924 O   0  0  0  0  0  0  0  0  0  0  0  0
   45.7541   36.2293   78.1582 C   0  0  0  0  0  0  0  0  0  0  0  0
   44.8827   37.0560   78.9719 N   0  0  0  0  0  0  0  0  0  0  0  0
   45.7259   36.4531   84.2243 S   0  0  0  0  0  6  0  0  0  0  0  0
   45.6845   38.7371   85.1171 O   0  0  0  0  0  0  0  0  0  0  0  0
   42.4318   37.0833   89.8270 C   0  0  0  0  0  0  0  0  0  0  0  0
   42.1392   36.4248   84.6777 C   0  0  0  0  0  0  0  0  0  0  0  0
   46.9770   36.1126   84.4054 O   0  0  0  0  0  0  0  0  0  0  0  0
   45.2375   36.2868   85.6137 N   0  0  0  0  0  0  0  0  0  0  0  0
   44.4608   38.5888   81.2029 C   0  0  0  0  0  0  0  0  0  0  0  0
   41.8957   36.9137   88.6411 C   0  0  0  0  0  0  0  0  0  0  0  0
   44.4116   38.7351   82.4677 C   0  0  0  0  0  0  0  0  0  0  0  0
   43.9245   35.8390   86.7488 C   0  0  0  0  0  0  0  0  0  0  0  0
   43.9040   35.7791   88.2388 C   0  0  0  0  0  0  0  0  0  0  0  0
   40.7992   36.4254   83.8073 C   0  0  0  0  0  0  0  0  0  0  0  0
  4  1  2  0
  6  4  1  0
  7  3  1  0
 10  8  1  0
 11  6  1  0
 11  7  1  0
 13  2  2  0
 13  5  1  0
 15  9  2  0
 15 12  1  0
 16  2  1  0
 16 15  1  0
 17  5  1  0
 17 14  1  0
 18 17  1  0
 19  3  1  0
 20  6  2  0
 21 17  1  0
 22 17  1  0
 23  2  1  0
 23  8  1  0
 24 11  1  0
 24 19  1  0
 25  5  2  0
 25 23  1  0
 26 22  1  0
 27 19  1  0
 27 26  1  0
 28  1  1  0
 28 20  1  0
M  END
>  <ID>  (1) 
conformer_0

$$$$
