
     RDKit          3D

 27 28  0  0  0  0  0  0  0  0999 V2000
   40.6985   38.0162   85.0189 C   0  0  0  0  0  0  0  0  0  0  0  0
   42.7362   36.9177   89.8099 C   0  0  0  0  0  0  0  0  0  0  0  0
   44.4895   38.9858   81.0007 C   0  0  0  0  0  0  0  0  0  0  0  0
   41.8289   37.4150   85.9544 C   0  0  1  0  0  0  0  0  0  0  0  0
   40.4697   36.9772   83.9582 C   0  0  0  0  0  0  0  0  0  0  0  0
   41.8385   36.9183   88.6567 C   0  0  0  0  0  0  0  0  0  0  0  0
   45.5902   36.8504   81.8191 C   0  0  0  0  0  0  0  0  0  0  0  0
   44.1247   39.6352   80.1954 O   0  0  0  0  0  0  0  0  0  0  0  0
   45.8072   36.0638   78.3595 C   0  0  0  0  0  0  0  0  0  0  0  0
   46.6620   35.7212   78.7160 O   0  0  0  0  0  0  0  0  0  0  0  0
   44.9358   37.0542   79.2666 N   0  0  0  0  0  0  0  0  0  0  0  0
   46.9971   36.4200   85.0415 O   0  0  0  0  0  0  0  0  0  0  0  0
   44.7305   38.5690   83.4459 C   0  0  0  0  0  0  0  0  0  0  0  0
   45.2682   35.9399   76.6633 C   0  0  0  0  0  0  0  0  0  0  0  0
   45.8442   36.1018   84.4666 S   0  0  0  0  0  6  0  0  0  0  0  0
   42.0117   37.1575   87.2878 N   0  0  0  0  0  0  0  0  0  0  0  0
   45.0838   39.1566   85.2798 O   0  0  0  0  0  0  0  0  0  0  0  0
   43.5385   39.6791   85.3935 C   0  0  0  0  0  0  0  0  0  0  0  0
   45.7623   34.8704   83.8598 O   0  0  0  0  0  0  0  0  0  0  0  0
   43.9216   40.9853   80.3143 C   0  0  0  0  0  0  0  0  0  0  0  0
   41.3526   36.1363   84.5597 C   0  0  0  0  0  0  0  0  0  0  0  0
   43.3486   35.3961   86.9349 C   0  0  0  0  0  0  0  0  0  0  0  0
   44.9235   36.1515   85.4905 N   0  0  0  0  0  0  0  0  0  0  0  0
   44.6929   38.8252   82.4122 C   0  0  0  0  0  0  0  0  0  0  0  0
   45.0579   37.3746   80.4716 C   0  0  0  0  0  0  0  0  0  0  0  0
   45.5730   36.8613   82.6815 C   0  0  0  0  0  0  0  0  0  0  0  0
   42.9448   38.0368   89.0057 C   0  0  0  0  0  0  0  0  0  0  0  0
  4  1  1  0
  5  1  1  0
  6  2  1  0
  8  3  1  0
 10  9  2  0
 11  9  1  0
 14  9  1  0
 15 12  1  0
  4 16  1  1
 16  6  1  0
 17 13  1  0
 18 17  1  0
 19 15  1  0
 20  8  1  0
 21  4  1  0
 21  5  2  0
 22  6  1  0
 22 15  1  0
 23 15  1  0
 24  3  2  0
 24 13  2  0
 25  3  1  0
 25  7  1  0
 25 11  2  3
 26  7  1  0
 26 15  1  0
 27  2  1  0
 27  6  1  0
M  END
>  <ID>  (1) 
conformer_0

$$$$
