
     RDKit          3D

 29 32  0  0  0  0  0  0  0  0999 V2000
   42.7419   36.3016   89.5337 C   0  0  0  0  0  0  0  0  0  0  0  0
   45.4628   36.4649   82.6771 C   0  0  0  0  0  0  0  0  0  0  0  0
   40.6506   37.9357   85.7168 C   0  0  0  0  0  0  0  0  0  0  0  0
   40.0753   37.5107   84.4349 C   0  0  0  0  0  0  0  0  0  0  0  0
   45.0518   37.1258   80.6951 C   0  0  0  0  0  0  0  0  0  0  0  0
   47.2306   36.4086   84.7729 O   0  0  0  0  0  0  0  0  0  0  0  0
   45.6243   35.6001   77.1613 C   0  0  0  0  0  0  0  0  0  0  0  0
   44.0513   40.8712   80.5838 C   0  0  0  0  0  0  0  0  0  0  0  0
   42.3389   37.2455   87.0460 N   0  0  0  0  0  0  0  0  0  0  0  0
   44.1543   39.6215   80.8306 O   0  0  0  0  0  0  0  0  0  0  0  0
   41.8545   37.1170   86.1191 C   0  0  0  0  0  0  0  0  0  0  0  0
   42.3082   37.4727   90.1339 C   0  0  0  0  0  0  0  0  0  0  0  0
   46.0921   35.9284   79.3476 O   0  0  0  0  0  0  0  0  0  0  0  0
   44.6749   39.6004   83.7868 O   0  0  0  0  0  0  0  0  0  0  0  0
   42.3022   38.6224   87.8140 C   0  0  0  0  0  0  0  0  0  0  0  0
   45.7439   36.0294   78.3744 C   0  0  0  0  0  0  0  0  0  0  0  0
   41.8929   36.0771   84.8854 C   0  0  0  0  0  0  0  0  0  0  0  0
   45.8665   36.3967   84.4335 S   0  0  0  0  0  6  0  0  0  0  0  0
   45.0734   38.0541   83.2802 C   0  0  0  0  0  0  0  0  0  0  0  0
   45.8667   34.7496   83.8802 O   0  0  0  0  0  0  0  0  0  0  0  0
   45.0944   36.9247   81.5619 C   0  0  0  0  0  0  0  0  0  0  0  0
   44.8800   37.1455   79.2513 N   0  0  0  0  0  0  0  0  0  0  0  0
   43.8434   35.7104   86.3143 C   0  0  0  0  0  0  0  0  0  0  0  0
   43.7789   39.5484   84.9670 C   0  0  0  0  0  0  0  0  0  0  0  0
   44.5421   38.7078   81.6286 C   0  0  0  0  0  0  0  0  0  0  0  0
   40.7664   36.4254   83.9032 C   0  0  0  0  0  0  0  0  0  0  0  0
   46.0788   38.3227   85.4309 O   0  0  0  0  0  0  0  0  0  0  0  0
   42.1277   36.2835   88.3835 C   0  0  0  0  0  0  0  0  0  0  0  0
   42.6746   38.6875   89.1861 C   0  0  0  0  0  0  0  0  0  0  0  0
  4  3  2  0
 10  8  1  0
 11  3  1  0
 11  9  1  0
 12  1  1  0
 15  9  1  0
 16  7  1  0
 16 13  2  0
 17 11  1  0
 18  2  1  0
 18  6  1  0
 19  2  1  0
 19 14  1  0
 19 18  1  0
 20 18  1  0
 21  2  1  0
 21  5  1  0
 22  5  1  0
 22 16  1  0
 23 18  1  0
 24 14  1  0
 25 10  1  0
 25 19  1  0
 25 21  2  0
 26  4  1  0
 26 17  2  0
 27 18  1  0
 28  1  1  0
 28  9  1  0
 28 23  1  0
 29 12  1  0
 29 15  1  0
M  END
>  <ID>  (1) 
conformer_0

$$$$
