
     RDKit          3D

 30 32  0  0  0  0  0  0  0  0999 V2000
   40.1790   37.5356   84.1596 C   0  0  0  0  0  0  0  0  0  0  0  0
   44.8913   38.1602   83.2572 C   0  0  0  0  0  0  0  0  0  0  0  0
   43.2121   37.5006   88.8115 C   0  0  0  0  0  0  0  0  0  0  0  0
   41.0306   38.0360   85.1389 C   0  0  0  0  0  0  0  0  0  0  0  0
   44.5263   38.3456   81.0071 C   0  0  0  0  0  0  0  0  0  0  0  0
   42.4622   36.1894   87.6440 C   0  0  0  0  0  0  0  0  0  0  0  0
   44.1111   40.7795   80.2432 C   0  0  0  0  0  0  0  0  0  0  0  0
   44.2211   39.5198   80.2578 O   0  0  0  0  0  0  0  0  0  0  0  0
   44.5977   35.4625   86.1442 C   0  0  0  0  0  0  0  0  0  0  0  0
   46.6483   35.8270   79.0021 O   0  0  0  0  0  0  0  0  0  0  0  0
   44.8504   39.0405   84.4145 O   0  0  0  0  0  0  0  0  0  0  0  0
   43.8111   40.0650   84.7353 C   0  0  0  0  0  0  0  0  0  0  0  0
   45.3514   36.5629   82.8620 C   0  0  0  0  0  0  0  0  0  0  0  0
   45.7636   36.2367   78.4302 C   0  0  0  0  0  0  0  0  0  0  0  0
   47.0040   36.8188   84.8363 O   0  0  0  0  0  1  0  0  0  0  0  0
   44.8808   37.0013   78.9980 N   0  0  0  0  0  0  0  0  0  0  0  0
   41.7480   37.2038   85.7391 C   0  0  0  0  0  0  0  0  0  0  0  0
   41.7250   35.9446   84.6819 C   0  0  0  0  0  0  0  0  0  0  0  0
   45.7575   36.0259   84.2546 S   0  0  0  0  0  4  0  0  0  0  0  0
   42.6421   39.0382   87.0410 C   0  0  0  0  0  0  0  0  0  0  0  0
   42.6944   36.8143   89.7048 C   0  0  0  0  0  0  0  0  0  0  0  0
   41.6042   38.0247   87.6050 N   0  0  0  0  0  0  0  0  0  0  0  0
   45.5049   35.9350   76.9266 C   0  0  0  0  0  0  0  0  0  0  0  0
   45.3744   36.1421   81.1316 C   0  0  0  0  0  0  0  0  0  0  0  0
   45.2203   36.7394   80.9865 C   0  0  0  0  0  0  0  0  0  0  0  0
   40.7714   36.2423   83.5727 C   0  0  0  0  0  0  0  0  0  0  0  0
   42.4122   36.9924   86.7434 N   0  0  0  0  0  0  0  0  0  0  0  0
   46.1087   34.9181   83.9827 O   0  0  0  0  0  1  0  0  0  0  0  0
   44.3874   38.4749   82.1721 C   0  0  0  0  0  0  0  0  0  0  0  0
   41.6210   37.7313   88.6367 C   0  0  0  0  0  0  0  0  0  0  0  0
  4  1  2  0
  6  3  1  0
  8  5  1  0
  8  7  1  0
 11  2  1  0
 12 11  1  0
 13  2  2  0
 14 10  2  0
 16 14  1  0
 17  4  1  0
 18  9  1  0
 18 17  2  0
 19  9  1  0
 19 13  1  0
 19 15  1  0
 21  3  1  0
 22 20  1  0
 23 14  1  0
 24 13  1  0
 25  5  1  0
 25 16  1  0
 25 24  2  0
 26  1  1  0
 26 18  1  0
 27  6  1  0
 27 17  1  0
 27 22  1  0
 28 19  1  0
 29  2  1  0
 29  5  2  0
 30  3  1  0
 30 22  1  0
M  RAD  2  15   2  28   2
M  END
>  <ID>  (1) 
conformer_0

$$$$
