
     RDKit          3D

 30 31  0  0  0  0  0  0  0  0999 V2000
   42.1203   35.9988   84.8511 C   0  0  0  0  0  0  0  0  0  0  0  0
   45.1930   37.0454   83.1598 C   0  0  0  0  0  0  0  0  0  0  0  0
   43.2023   38.2428   89.4250 C   0  0  0  0  0  0  0  0  0  0  0  0
   40.2208   37.8493   85.0404 C   0  0  0  0  0  0  0  0  0  0  0  0
   45.4211   34.2337   77.4187 C   0  0  0  0  0  0  0  0  0  0  0  0
   41.6864   36.9672   88.8294 C   0  0  0  0  0  0  0  0  0  0  0  0
   45.1491   37.0180   80.8148 C   0  0  0  0  0  0  0  0  0  0  0  0
   45.6013   36.5392   84.6342 S   0  0  0  0  0  6  0  0  0  0  0  0
   47.2539   36.6327   84.8909 O   0  0  0  0  0  0  0  0  0  0  0  0
   44.0866   41.1690   80.8891 C   0  0  0  0  0  0  0  0  0  0  0  0
   44.2823   39.9575   80.4526 O   0  0  0  0  0  0  0  0  0  0  0  0
   46.5682   35.8067   79.7237 O   0  0  0  0  0  0  0  0  0  0  0  0
   45.8997   35.9051   78.5637 C   0  0  0  0  0  0  0  0  0  0  0  0
   40.1090   36.8441   83.9585 C   0  0  0  0  0  0  0  0  0  0  0  0
   42.1909   36.8637   85.7749 C   0  0  0  0  0  0  0  0  0  0  0  0
   45.0668   36.9535   79.2450 N   0  0  0  0  0  0  0  0  0  0  0  0
   45.3009   36.3675   81.8369 C   0  0  0  0  0  0  0  0  0  0  0  0
   42.5953   37.2433   87.3972 N   0  0  0  0  0  0  0  0  0  0  0  0
   42.5741   38.8912   87.9514 C   0  0  0  0  0  0  0  0  0  0  0  0
   44.4792   38.6760   81.0389 C   0  0  0  0  0  0  0  0  0  0  0  0
   45.6551   38.0975   85.4540 O   0  0  0  0  0  0  0  0  0  0  0  0
   41.2306   36.1611   83.6572 C   0  0  0  0  0  0  0  0  0  0  0  0
   44.0785   39.9869   82.7470 O   0  0  0  0  0  0  0  0  0  0  0  0
   43.2919   35.9782   87.2459 C   0  0  0  0  0  0  0  0  0  0  0  0
   42.9827   36.7637   89.5467 C   0  0  0  0  0  0  0  0  0  0  0  0
   44.2546   38.1673   82.6805 C   0  0  0  0  0  0  0  0  0  0  0  0
   45.9622   35.1902   84.2463 O   0  0  0  0  0  0  0  0  0  0  0  0
   44.5451   38.7449   82.7680 C   0  0  0  0  0  0  0  0  0  0  0  0
   41.1479   37.3625   86.0766 C   0  0  0  0  0  0  0  0  0  0  0  0
   45.6892   36.0169   77.3278 C   0  0  0  0  0  0  0  0  0  0  0  0
  8  2  1  0
  9  8  1  0
 11 10  1  0
 13 12  2  0
 14  4  1  0
 15  1  2  0
 16  7  1  0
 16 13  1  0
 17  2  1  0
 17  7  2  0
 18  6  1  0
 18 15  1  0
 19  3  1  0
 20  7  1  0
 20 11  1  0
 21  8  1  0
 22  1  1  0
 22 14  2  0
 24  8  1  0
 24 18  1  0
 25  3  1  0
 25  6  1  0
 26  2  2  0
 27  8  1  0
 28 20  2  0
 28 23  1  0
 28 26  1  0
 29  4  2  0
 29 15  1  0
 30  5  1  0
 30 13  1  0
M  END
>  <ID>  (1) 
conformer_0

$$$$
