
     RDKit          3D

 27 28  0  0  0  0  0  0  0  0999 V2000
   40.1911   37.3045   84.1104 C   0  0  0  0  0  0  0  0  0  0  0  0
   40.6507   37.9451   85.2629 C   0  0  0  0  0  0  0  0  0  0  0  0
   45.3501   37.3222   82.8205 C   0  0  1  0  0  0  0  0  0  0  0  0
   42.8585   38.7307   89.2625 C   0  0  0  0  0  0  0  0  0  0  0  0
   45.3427   35.5279   76.7436 C   0  0  0  0  0  0  0  0  0  0  0  0
   41.7864   36.8409   88.7308 C   0  0  0  0  0  0  0  0  0  0  0  0
   42.1557   37.3297   87.2821 N   0  0  0  0  0  0  0  0  0  0  0  0
   43.9027   39.9024   80.8756 O   0  0  0  0  0  0  0  0  0  0  0  0
   42.1032   36.1703   84.9516 C   0  0  0  0  0  0  0  0  0  0  0  0
   44.7245   38.4132   82.3788 C   0  0  0  0  0  0  0  0  0  0  0  0
   45.1297   37.1741   80.5620 C   0  0  0  0  0  0  0  0  0  0  0  0
   41.8216   37.1739   86.0930 C   0  0  0  0  0  0  0  0  0  0  0  0
   45.6146   36.1700   84.3226 S   0  0  0  0  0  4  0  0  0  0  0  0
   43.6563   35.5911   86.3268 C   0  0  0  0  0  0  0  0  0  0  0  0
   45.7625   34.7607   83.9987 O   0  0  0  0  0  1  0  0  0  0  0  0
   45.5911   36.0166   78.0781 C   0  0  0  0  0  0  0  0  0  0  0  0
   46.3818   35.9286   79.3324 O   0  0  0  0  0  0  0  0  0  0  0  0
   43.2372   40.5845   83.6092 C   0  0  0  0  0  0  0  0  0  0  0  0
   44.8773   36.9365   79.0412 N   0  0  0  0  0  0  0  0  0  0  0  0
   44.4963   38.8221   81.5211 C   0  0  0  0  0  0  0  0  0  0  0  0
   42.8055   37.0779   89.7618 C   0  0  0  0  0  0  0  0  0  0  0  0
   46.7083   36.6970   84.8826 O   0  0  0  0  0  1  0  0  0  0  0  0
   41.0701   36.1414   83.9036 C   0  0  0  0  0  0  0  0  0  0  0  0
   45.3967   36.3443   81.6102 C   0  0  0  0  0  0  0  0  0  0  0  0
   43.8500   40.1531   83.0715 O   0  0  0  0  0  0  0  0  0  0  0  0
   42.2627   38.6608   87.8871 C   0  0  0  0  0  0  0  0  0  0  0  0
   43.9124   41.1210   80.9657 C   0  0  0  0  0  0  0  0  0  0  0  0
  2  1  2  0
  7  6  1  0
 10  3  1  0
 12  2  1  0
 12  7  1  0
 12  9  2  0
  3 13  1  1
 14  9  1  0
 14 13  1  0
 15 13  1  0
 16  5  1  0
 17 16  2  0
 19 11  1  0
 19 16  1  0
 20  8  1  0
 20 10  2  3
 21  4  1  0
 21  6  1  0
 22 13  1  0
 23  1  1  0
 23  9  1  0
 24  3  1  0
 24 11  2  3
 25 10  1  0
 25 18  1  0
 26  4  1  0
 26  7  1  0
 27  8  1  0
M  RAD  2  15   2  22   2
M  END
>  <ID>  (1) 
conformer_0

$$$$
