
     RDKit          3D

 29 33  0  0  0  0  0  0  0  0999 V2000
   40.0756   37.2562   84.1678 C   0  0  0  0  0  0  0  0  0  0  0  0
   45.0115   37.0198   80.8354 C   0  0  0  0  0  0  0  0  0  0  0  0
   43.0581   38.0480   89.9114 C   0  0  0  0  0  0  0  0  0  0  0  0
   40.6013   37.8011   85.3668 C   0  0  0  0  0  0  0  0  0  0  0  0
   44.4444   38.5422   80.9091 C   0  0  0  0  0  0  0  0  0  0  0  0
   43.8546   39.5270   85.4876 C   0  0  0  0  0  0  0  0  0  0  0  0
   44.3606   39.3301   82.5297 C   0  0  0  0  0  0  0  0  0  0  0  0
   44.2023   40.8435   80.2342 C   0  0  0  0  0  0  0  0  0  0  0  0
   45.7073   35.9671   78.3105 C   0  0  0  0  0  0  0  0  0  0  0  0
   45.4775   35.3376   77.0914 C   0  0  0  0  0  0  0  0  0  0  0  0
   41.6807   37.0040   86.1385 C   0  0  0  0  0  0  0  0  0  0  0  0
   41.7155   36.9193   88.6751 C   0  0  0  0  0  0  0  0  0  0  0  0
   42.1665   37.3903   87.2325 N   0  0  0  0  0  0  0  0  0  0  0  0
   44.1090   39.4803   79.9106 O   0  0  0  0  0  0  0  0  0  0  0  0
   43.1840   38.7149   88.7371 C   0  0  0  0  0  0  0  0  0  0  0  0
   45.5950   39.0814   85.0451 O   0  0  0  0  0  0  0  0  0  0  0  0
   41.9533   36.1084   85.0468 C   0  0  0  0  0  0  0  0  0  0  0  0
   46.4087   36.7884   85.5298 O   0  0  0  0  0  0  0  0  0  0  0  0
   46.0588   35.8181   79.6404 O   0  0  0  0  0  0  0  0  0  0  0  0
   44.8854   37.0911   79.1538 N   0  0  0  0  0  0  0  0  0  0  0  0
   45.0511   37.9591   83.3009 C   0  0  0  0  0  0  0  0  0  0  0  0
   45.5986   36.3824   84.4994 S   0  0  0  0  0  6  0  0  0  0  0  0
   46.0654   35.0631   84.1700 O   0  0  0  0  0  0  0  0  0  0  0  0
   44.2408   35.1518   86.2706 C   0  0  0  0  0  0  0  0  0  0  0  0
   40.9566   36.1008   83.8599 C   0  0  0  0  0  0  0  0  0  0  0  0
   45.3810   36.4602   82.4536 C   0  0  0  0  0  0  0  0  0  0  0  0
   42.7309   38.6524   87.2645 C   0  0  0  0  0  0  0  0  0  0  0  0
   42.7397   36.6513   89.7467 C   0  0  0  0  0  0  0  0  0  0  0  0
   44.8689   37.4053   82.0704 C   0  0  0  0  0  0  0  0  0  0  0  0
  4  1  2  0
  5  2  1  0
  7  5  1  0
  7  6  1  0
 10  9  1  0
 11  4  1  0
 13 11  1  0
 13 12  1  0
 14  5  1  0
 14  8  1  0
 15  3  1  0
 16  6  1  0
 17 11  2  0
 19  9  2  0
 20  2  1  0
 20  9  1  0
 21  7  1  0
 22 18  1  0
 22 21  1  0
 23 22  1  0
 24 22  1  0
 25  1  1  0
 25 17  1  0
 26 22  1  0
 27  6  1  0
 27 13  1  0
 27 15  1  0
 28  3  1  0
 28 12  1  0
 29  2  1  0
 29  5  1  0
 29 21  1  0
 29 26  1  0
M  END
>  <ID>  (1) 
conformer_0

$$$$
