
     RDKit          3D

 29 32  0  0  0  0  0  0  0  0999 V2000
   41.0026   37.7711   85.4390 C   0  0  0  0  0  0  0  0  0  0  0  0
   43.1847   36.5997   89.5679 C   0  0  0  0  0  0  0  0  0  0  0  0
   45.1281   37.0448   80.5329 C   0  0  0  0  0  0  0  0  0  0  0  0
   40.1705   36.5544   83.5064 C   0  0  0  0  0  0  0  0  0  0  0  0
   44.5183   38.9628   82.6883 C   0  0  0  0  0  0  0  0  0  0  0  0
   45.0518   38.0769   83.4915 C   0  0  0  0  0  0  0  0  0  0  0  0
   45.5714   36.0122   76.8670 C   0  0  0  0  0  0  0  0  0  0  0  0
   44.1241   39.4285   80.1949 O   0  0  0  0  0  0  0  0  0  0  0  0
   44.0024   40.7890   80.2083 C   0  0  0  0  0  0  0  0  0  0  0  0
   42.3626   36.8051   88.1657 C   0  0  0  0  0  0  0  0  0  0  0  0
   46.4325   35.9970   79.4964 O   0  0  0  0  0  0  0  0  0  0  0  0
   41.9311   35.9177   84.9806 C   0  0  0  0  0  0  0  0  0  0  0  0
   42.5879   37.3258   86.9237 N   0  0  0  0  0  0  0  0  0  0  0  0
   45.8553   35.0315   84.1314 O   0  0  0  0  0  0  0  0  0  0  0  0
   43.9626   35.5143   86.1953 C   0  0  0  0  0  0  0  0  0  0  0  0
   45.7176   36.0607   78.2580 C   0  0  0  0  0  0  0  0  0  0  0  0
   41.8842   36.8267   85.7534 C   0  0  0  0  0  0  0  0  0  0  0  0
   45.3554   38.8917   85.3484 O   0  0  0  0  0  0  0  0  0  0  0  0
   45.7252   36.3283   84.3833 S   0  0  0  0  0  6  0  0  0  0  0  0
   42.5449   37.9883   89.5544 C   0  0  0  0  0  0  0  0  0  0  0  0
   45.1915   36.5838   81.6643 C   0  0  0  0  0  0  0  0  0  0  0  0
   42.4431   38.9063   87.5467 C   0  0  0  0  0  0  0  0  0  0  0  0
   44.7948   37.0212   79.2094 N   0  0  0  0  0  0  0  0  0  0  0  0
   44.4234   38.5225   81.1316 C   0  0  0  0  0  0  0  0  0  0  0  0
   40.0603   37.6579   84.3927 C   0  0  0  0  0  0  0  0  0  0  0  0
   45.4249   36.6708   82.5958 C   0  0  0  0  0  3  0  0  0  0  0  0
   47.0425   36.7048   84.7975 O   0  0  0  0  0  0  0  0  0  0  0  0
   43.9219   39.6621   85.8610 C   0  0  0  0  0  0  0  0  0  0  0  0
   41.1240   35.7038   83.6412 C   0  0  0  0  0  0  0  0  0  0  0  0
  6  5  1  0
  9  8  1  0
 10  2  1  0
 13 10  1  0
 16  7  1  0
 16 11  2  0
 17  1  2  0
 17 12  1  0
 17 13  1  0
 18  6  1  0
 19  6  1  0
 19 14  1  0
 19 15  1  0
 20  2  1  0
 20 10  1  0
 21  3  2  0
 22 13  1  0
 23  3  1  0
 23 16  1  0
 24  3  1  0
 24  5  2  0
 24  8  1  0
 25  1  1  0
 25  4  2  0
 26  6  1  0
 26 19  1  0
 26 21  1  0
 27 19  1  0
 28 18  1  0
 28 22  1  0
 29  4  1  0
 29 12  2  0
M  RAD  1  26   2
M  END
>  <ID>  (1) 
conformer_0

$$$$
