
     RDKit          3D

 28 31  0  0  0  0  0  0  0  0999 V2000
   40.7317   38.1401   85.2402 C   0  0  0  0  0  0  0  0  0  0  0  0
   44.9530   37.5044   80.5143 C   0  0  0  0  0  0  0  0  0  0  0  0
   42.4418   37.3051   90.0053 C   0  0  0  0  0  0  0  0  0  0  0  0
   40.1362   37.5712   84.0844 C   0  0  0  0  0  0  0  0  0  0  0  0
   44.4956   38.7557   81.2305 C   0  0  0  0  0  0  0  0  0  0  0  0
   44.0546   40.9412   80.5182 C   0  0  0  0  0  0  0  0  0  0  0  0
   45.5819   36.3029   81.2289 C   0  0  0  0  0  3  0  0  0  0  0  0
   42.0645   37.4633   87.2992 N   0  0  0  0  0  0  0  0  0  0  0  0
   41.6704   36.7549   88.5605 C   0  0  0  0  0  0  0  0  0  0  0  0
   41.9529   36.1750   84.9190 C   0  0  0  0  0  0  0  0  0  0  0  0
   44.0718   39.6915   80.2991 O   0  0  0  0  0  0  0  0  0  0  0  0
   46.2353   38.1407   85.5069 O   0  0  0  0  0  0  0  0  0  0  0  0
   45.7998   36.1685   78.3556 C   0  0  0  0  0  0  0  0  0  0  0  0
   41.7644   37.1598   85.9613 C   0  0  0  0  0  0  0  0  0  0  0  0
   46.5530   35.7297   78.8420 O   0  0  0  0  0  0  0  0  0  0  0  0
   45.9841   36.5788   84.5235 S   0  0  0  0  0  6  0  0  0  0  0  0
   44.8052   37.3421   79.0614 N   0  0  0  0  0  0  0  0  0  0  0  0
   42.5593   38.8839   87.5863 C   0  0  0  0  0  0  0  0  0  0  0  0
   45.7238   34.5718   83.3115 O   0  0  0  0  0  0  0  0  0  0  0  0
   44.8123   38.4859   82.4697 C   0  0  0  0  0  0  0  0  0  0  0  0
   45.5458   36.4045   82.6332 C   0  0  0  0  0  0  0  0  0  0  0  0
   40.9003   36.3193   83.7670 C   0  0  0  0  0  0  0  0  0  0  0  0
   43.2493   38.3734   89.2079 C   0  0  0  0  0  0  0  0  0  0  0  0
   45.4095   35.9627   76.8141 C   0  0  0  0  0  0  0  0  0  0  0  0
   47.3386   36.3381   84.8495 O   0  0  0  0  0  0  0  0  0  0  0  0
   45.4139   37.9440   83.1575 C   0  0  0  0  0  0  0  0  0  0  0  0
   45.2006   35.6031   85.6025 O   0  0  0  0  0  0  0  0  0  0  0  0
   43.7929   35.3798   85.9196 C   0  0  0  0  0  0  0  0  0  0  0  0
  4  1  2  0
  5  2  2  0
  7  2  1  0
  9  3  1  0
  9  8  1  0
 11  5  1  0
 11  6  1  0
 14  1  1  0
 14  8  1  0
 14 10  1  0
 15 13  2  0
 16 12  1  0
 17  2  1  0
 17 13  1  0
 18  8  1  0
 20  5  1  0
 21  7  1  0
 21 16  1  0
 21 19  1  0
 22  4  1  0
 22 10  2  0
 23  3  1  0
 23 18  1  0
 24 13  1  0
 25 16  1  0
 26 16  1  0
 26 20  2  0
 26 21  1  0
 27 16  1  0
 28 10  1  0
 28 27  1  0
M  RAD  1   7   2
M  END
>  <ID>  (1) 
conformer_0

$$$$
