
     RDKit          3D

 28 31  0  0  0  0  0  0  0  0999 V2000
   41.0299   36.0819   83.8598 C   0  0  0  0  0  0  0  0  0  0  0  0
   44.5750   38.7762   81.0744 C   0  0  0  0  0  0  0  0  0  0  0  0
   42.9859   37.1586   89.6348 C   0  0  0  0  0  0  0  0  0  0  0  0
   40.6608   37.8656   85.2857 C   0  0  0  0  0  0  0  0  0  0  0  0
   45.3290   37.5867   83.0279 C   0  0  0  0  0  0  0  0  0  0  0  0
   42.4093   37.4622   87.0503 N   0  0  0  0  0  0  0  0  0  0  0  0
   44.6805   38.7942   82.5254 C   0  0  0  0  0  0  0  0  0  0  0  0
   44.3219   41.1201   80.1766 C   0  0  0  0  0  0  0  0  0  0  0  0
   45.8329   35.8429   78.4596 C   0  0  0  0  0  0  0  0  0  0  0  0
   45.5884   36.7468   84.6523 S   0  0  0  0  0  6  0  0  0  0  0  0
   41.8975   37.1697   85.9707 C   0  0  0  0  0  0  0  0  0  0  0  0
   41.7916   37.1039   88.5922 C   0  0  0  0  0  0  0  0  0  0  0  0
   44.2826   39.6174   80.0051 O   0  0  0  0  0  0  0  0  0  0  0  0
   46.4764   37.4778   85.5898 O   0  0  0  0  0  0  0  0  0  0  0  0
   42.1074   36.0624   84.9424 C   0  0  0  0  0  0  0  0  0  0  0  0
   46.7399   35.7195   79.1569 O   0  0  0  0  0  0  0  0  0  0  0  0
   43.6174   38.9094   88.9270 C   0  0  0  0  0  0  0  0  0  0  0  0
   45.0433   36.8127   79.1353 N   0  0  0  0  0  0  0  0  0  0  0  0
   45.3041   35.4869   76.6931 C   0  0  0  0  0  0  0  0  0  0  0  0
   44.8472   35.2188   85.1621 O   0  0  0  0  0  0  0  0  0  0  0  0
   45.1106   37.3242   80.6641 C   0  0  0  0  0  0  0  0  0  0  0  0
   46.9091   35.8040   84.3379 O   0  0  0  0  0  0  0  0  0  0  0  0
   45.5376   36.5871   81.9312 C   0  0  0  0  0  0  0  0  0  0  0  0
   42.7321   39.1505   87.3014 C   0  0  0  0  0  0  0  0  0  0  0  0
   43.4579   35.8305   86.5123 C   0  0  0  0  0  0  0  0  0  0  0  0
   40.1922   37.1849   84.1125 C   0  0  0  0  0  0  0  0  0  0  0  0
   42.1641   38.3228   89.7470 C   0  0  0  0  0  0  0  0  0  0  0  0
   44.9511   38.9401   85.0190 O   0  0  0  0  0  0  0  0  0  0  0  0
  7  2  2  0
  7  5  1  0
 10  5  1  0
 11  4  2  0
 11  6  1  0
 12  3  1  0
 12  6  1  0
 13  2  1  0
 13  8  1  0
 14 10  1  0
 15  1  2  0
 15 11  1  0
 16  9  2  0
 18  9  1  0
 19  9  1  0
 20 10  1  0
 21  2  1  0
 21 18  1  0
 22 10  1  0
 23  5  2  0
 23 21  1  0
 24  6  1  0
 24 17  1  0
 25 15  1  0
 25 20  1  0
 26  1  1  0
 26  4  1  0
 27  3  1  0
 27 12  1  0
 27 17  1  0
 28 10  1  0
M  END
>  <ID>  (1) 
conformer_0

$$$$
