
     RDKit          3D

 28 30  0  0  0  0  0  0  0  0999 V2000
   42.0747   36.0544   85.1792 C   0  0  0  0  0  0  0  0  0  0  0  0
   42.3539   37.1491   90.0666 C   0  0  0  0  0  0  0  0  0  0  0  0
   44.3739   38.8060   81.0638 C   0  0  0  0  0  0  0  0  0  0  0  0
   40.7906   37.8981   85.4803 C   0  0  0  0  0  0  0  0  0  0  0  0
   43.9606   39.4976   85.6210 C   0  0  0  0  0  0  0  0  0  0  0  0
   44.9379   38.0271   83.3047 C   0  0  0  0  0  0  0  0  0  0  0  0
   41.7888   37.0826   86.1575 C   0  0  0  0  0  0  0  0  0  0  0  0
   45.3898   36.3870   81.4719 C   0  0  0  0  0  0  0  0  0  0  0  0
   44.1197   41.0882   80.4904 C   0  0  0  0  0  0  0  0  0  0  0  0
   45.3222   38.7339   84.8607 O   0  0  0  0  0  0  0  0  0  0  0  0
   46.5973   35.9918   79.0730 O   0  0  0  0  0  0  0  0  0  0  0  0
   45.8495   35.9829   78.1941 C   0  0  0  0  0  0  0  0  0  0  0  0
   42.1017   35.7247   88.3063 C   0  0  0  0  0  0  0  0  0  0  0  0
   44.1722   39.6865   80.1211 O   0  0  0  0  0  0  0  0  0  0  0  0
   46.0710   34.5052   83.2720 O   0  0  0  0  0  0  0  0  0  0  0  0
   41.9158   37.1460   87.3388 N   0  0  0  0  0  0  0  0  0  0  0  0
   45.8303   36.1378   84.0345 S   0  0  0  0  0  6  0  0  0  0  0  0
   47.1319   36.6599   84.6858 O   0  0  0  0  0  0  0  0  0  0  0  0
   44.4850   38.5400   82.5416 C   0  0  0  0  0  0  0  0  0  0  0  0
   40.2131   37.2916   84.2247 C   0  0  0  0  0  0  0  0  0  0  0  0
   42.8536   37.8954   89.7908 C   0  0  0  0  0  0  0  0  0  0  0  0
   44.8879   37.0083   79.1838 N   0  0  0  0  0  0  0  0  0  0  0  0
   44.9777   37.4251   80.3881 C   0  0  0  0  0  0  0  0  0  0  0  0
   45.6265   36.2204   76.7023 C   0  0  0  0  0  0  0  0  0  0  0  0
   41.8895   38.0242   88.3231 C   0  0  0  0  0  0  0  0  0  0  0  0
   45.4524   36.5245   82.4608 C   0  0  0  0  0  3  0  0  0  0  0  0
   45.1181   35.3152   84.9182 O   0  0  0  0  0  0  0  0  0  0  0  0
   41.0240   36.0985   83.9138 C   0  0  0  0  0  0  0  0  0  0  0  0
  7  1  2  0
  7  4  1  0
 10  5  1  0
 10  6  1  0
 12 11  2  0
 14  3  1  0
 14  9  1  0
 16  7  1  0
 16 13  1  0
 17  6  1  0
 17 15  1  0
 18 17  1  0
 19  3  2  0
 19  6  1  0
 20  4  2  0
 21  2  1  0
 22 12  1  0
 23  3  1  0
 23  8  2  0
 23 22  1  0
 24 12  1  0
 25  5  1  0
 25 16  1  0
 25 21  1  0
 26  6  1  0
 26  8  1  0
 26 17  1  0
 27 17  1  0
 28  1  1  0
 28 20  1  0
M  RAD  1  26   2
M  END
>  <ID>  (1) 
conformer_0

$$$$
