
     RDKit          3D

 25 27  0  0  0  0  0  0  0  0999 V2000
   40.2995   37.3583   84.2386 C   0  0  0  0  0  0  0  0  0  0  0  0
   44.9521   37.4527   80.5666 C   0  0  0  0  0  0  0  0  0  0  0  0
   42.8480   38.5238   89.8785 C   0  0  0  0  0  0  0  0  0  0  0  0
   41.0156   37.8090   85.3705 C   0  0  0  0  0  0  0  0  0  0  0  0
   45.1140   37.6645   82.8314 C   0  0  0  0  0  0  0  0  0  0  0  0
   43.9228   41.1248   80.1603 C   0  0  0  0  0  0  0  0  0  0  0  0
   45.6908   36.0133   78.1296 C   0  0  0  0  0  0  0  0  0  0  0  0
   42.0451   37.6825   88.6116 C   0  0  0  0  0  0  0  0  0  0  0  0
   46.9936   36.4628   84.8197 O   0  0  0  0  0  1  0  0  0  0  0  0
   44.0470   39.7979   79.9672 O   0  0  0  0  0  0  0  0  0  0  0  0
   46.7467   35.9601   78.9039 O   0  0  0  0  0  0  0  0  0  0  0  0
   44.9128   36.8358   78.8717 N   0  0  0  0  0  0  0  0  0  0  0  0
   45.7020   36.2208   84.4603 S   0  0  0  0  0  4  0  0  0  0  0  0
   45.1551   38.8413   84.4187 O   0  0  0  0  0  0  0  0  0  0  0  0
   42.1473   36.0460   84.8462 C   0  0  0  0  0  0  0  0  0  0  0  0
   42.1431   36.9880   85.8737 C   0  0  0  0  0  0  0  0  0  0  0  0
   45.2937   36.5886   81.4638 C   0  0  0  0  0  0  0  0  0  0  0  0
   45.2845   35.5657   76.6389 C   0  0  0  0  0  0  0  0  0  0  0  0
   43.1187   36.9229   89.6010 C   0  0  0  0  0  0  0  0  0  0  0  0
   44.4708   38.7333   81.1173 C   0  0  0  0  0  0  0  0  0  0  0  0
   41.0134   37.2204   88.7158 O   0  0  0  0  0  0  0  0  0  0  0  0
   44.4744   39.1609   82.2621 C   0  0  0  0  0  3  0  0  0  0  0  0
   42.9631   35.8575   87.4494 C   0  0  0  0  0  0  0  0  0  0  0  0
   41.0228   36.1503   83.7202 C   0  0  0  0  0  0  0  0  0  0  0  0
   45.4379   35.0587   84.2714 O   0  0  0  0  0  1  0  0  0  0  0  0
  4  1  2  0
  8  3  1  0
 10  6  1  0
 11  7  2  0
 12  2  1  0
 12  7  1  0
 13  5  1  0
 13  9  1  0
 14  5  1  0
 15 13  1  0
 16  4  1  0
 16 15  2  0
 17  2  2  0
 17  5  1  0
 18  7  1  0
 19  3  1  0
 19  8  1  0
 20  2  1  0
 20 10  1  0
 21  8  1  0
 22  5  1  0
 22 20  1  0
 23  8  1  0
 23 16  1  0
 24  1  1  0
 24 15  1  0
 25 13  1  0
M  RAD  3   9   2  22   2  25   2
M  END
>  <ID>  (1) 
conformer_0

$$$$
