
     RDKit          3D

 25 26  0  0  0  0  0  0  0  0999 V2000
   40.8140   37.7333   85.2490 C   0  0  0  0  0  3  0  0  0  0  0  0
   44.6385   37.8543   80.7658 C   0  0  0  0  0  0  0  0  0  0  0  0
   42.9052   37.3318   89.9030 C   0  0  0  0  0  0  0  0  0  0  0  0
   42.1511   36.2194   84.3014 C   0  0  0  0  0  0  0  0  0  0  0  0
   45.6945   36.0440   78.2274 C   0  0  0  0  0  0  0  0  0  0  0  0
   42.4282   38.5293   87.9314 C   0  0  0  0  0  0  0  0  0  0  0  0
   44.1171   40.7753   80.2392 C   0  0  0  0  0  0  0  0  0  0  0  0
   42.1580   37.0864   85.3896 C   0  0  0  0  0  0  0  0  0  0  0  0
   44.0833   39.3934   80.2166 O   0  0  0  0  0  0  0  0  0  0  0  0
   44.6279   36.3741   81.7450 C   0  0  0  0  0  0  0  0  0  0  0  0
   45.9217   37.8337   85.4184 O   0  0  0  0  0  0  0  0  0  0  0  0
   45.6854   36.3942   84.4420 S   0  0  0  0  0  6  0  0  0  0  0  0
   46.5448   35.7095   78.6477 O   0  0  0  0  0  0  0  0  0  0  0  0
   44.9358   37.4613   82.6056 C   0  0  0  0  0  0  0  0  0  0  0  0
   43.0720   35.4649   86.9070 C   0  0  0  0  0  0  0  0  0  0  0  0
   45.6303   34.8245   83.9089 O   0  0  0  0  0  0  0  0  0  0  0  0
   42.3227   37.2963   87.2631 N   0  0  0  0  0  0  0  0  0  0  0  0
   44.9163   37.0103   79.3741 N   0  0  0  0  0  0  0  0  0  0  0  0
   43.8436   39.6868   86.6834 O   0  0  0  0  0  0  0  0  0  0  0  0
   40.1787   37.4597   84.0488 C   0  0  0  0  0  0  0  0  0  0  0  0
   44.7053   38.4848   82.3687 C   0  0  0  0  0  0  0  0  0  0  0  0
   41.9405   36.6137   88.8120 C   0  0  0  0  0  0  0  0  0  0  0  0
   44.2039   39.8075   85.2979 C   0  0  0  0  0  0  0  0  0  0  0  0
   41.0615   36.5120   83.1685 C   0  0  0  0  0  0  0  0  0  0  0  0
   47.1501   36.2992   84.7249 O   0  0  0  0  0  0  0  0  0  0  0  0
  8  1  1  0
  8  4  1  0
  9  2  1  0
  9  7  1  0
 10  2  1  0
 12 11  1  0
 13  5  1  0
 14 10  1  0
 14 12  1  0
 15  8  1  0
 15 12  1  0
 16 12  1  0
 17  6  1  0
 17  8  1  0
 18  2  1  0
 18  5  1  0
 19  6  1  0
 20  1  1  0
 21  2  1  0
 21 14  1  0
 22  3  1  0
 22 17  1  0
 23 19  1  0
 24  4  2  0
 24 20  1  0
 25 12  1  0
M  RAD  1   1   2
M  END
>  <ID>  (1) 
conformer_0

$$$$
