
     RDKit          3D

 30 33  0  0  0  0  0  0  0  0999 V2000
   40.0601   37.0650   83.9340 C   0  0  0  0  0  0  0  0  0  0  0  0
   42.6876   38.0370   89.6054 C   0  0  0  0  0  0  0  0  0  0  0  0
   44.4464   38.7115   80.7514 C   0  0  0  0  0  0  0  0  0  0  0  0
   40.5059   37.7942   85.1219 C   0  0  0  0  0  0  0  0  0  0  0  0
   44.4088   38.7426   82.2667 C   0  0  0  0  0  0  0  0  0  0  0  0
   44.8281   38.3206   83.4245 C   0  0  0  0  0  0  0  0  0  0  0  0
   41.6720   37.0370   85.8776 C   0  0  0  0  0  0  0  0  0  0  0  0
   44.3541   39.3991   79.7431 O   0  0  0  0  0  0  0  0  0  0  0  0
   42.2106   36.7251   88.2008 C   0  0  0  0  0  0  0  0  0  0  0  0
   45.9784   36.1892   78.6974 C   0  0  0  0  0  0  0  0  0  0  0  0
   42.2065   37.4687   87.0836 N   0  0  0  0  0  0  0  0  0  0  0  0
   44.6785   39.5224   84.5487 O   0  0  0  0  0  0  0  0  0  0  0  0
   45.6231   36.5890   76.5121 C   0  0  0  0  0  0  0  0  0  0  0  0
   43.9320   38.6897   89.0256 C   0  0  0  0  0  0  0  0  0  0  0  0
   43.8684   39.9429   85.1727 C   0  0  0  0  0  0  0  0  0  0  0  0
   45.2323   36.5345   81.7742 C   0  0  0  0  0  0  0  0  0  0  0  0
   41.9996   36.0933   84.8609 C   0  0  0  0  0  0  0  0  0  0  0  0
   44.9751   36.9948   79.2189 N   0  0  0  0  0  0  0  0  0  0  0  0
   45.8280   38.1324   85.4589 O   0  0  0  0  0  0  0  0  0  0  0  0
   44.1067   40.7948   80.1017 C   0  0  0  0  0  0  0  0  0  0  0  0
   46.7373   35.8786   78.9730 O   0  0  0  0  0  0  0  0  0  0  0  0
   45.5159   36.6273   84.3518 S   0  0  0  0  0  6  0  0  0  0  0  0
   45.8016   34.5686   83.3305 O   0  0  0  0  0  0  0  0  0  0  0  0
   42.8658   38.8266   87.6035 C   0  0  0  0  0  0  0  0  0  0  0  0
   40.8982   35.9285   83.6538 C   0  0  0  0  0  0  0  0  0  0  0  0
   45.0108   37.2624   80.4353 C   0  0  0  0  0  0  0  0  0  0  0  0
   42.8701   36.2896   89.3539 C   0  0  0  0  0  0  0  0  0  0  0  0
   47.1360   36.3524   84.5751 O   0  0  0  0  0  0  0  0  0  0  0  0
   45.3123   36.8031   82.8666 C   0  0  0  0  0  3  0  0  0  0  0  0
   45.1289   35.6116   85.3365 O   0  0  0  0  0  0  0  0  0  0  0  0
  4  1  2  0
  5  3  2  0
  6  5  1  0
  7  4  1  0
  8  3  1  0
 11  7  1  0
 11  9  1  0
 12  6  1  0
 13 10  1  0
 14  2  1  0
 15  4  1  0
 15 12  1  0
 17  7  2  0
 18 10  1  0
 20  8  1  0
 21 10  2  0
 22  6  1  0
 22 19  1  0
 23 22  1  0
 24 11  1  0
 24 14  1  0
 25  1  1  0
 25 17  1  0
 26  3  1  0
 26 16  2  0
 26 18  1  0
 27  2  1  0
 27  9  1  0
 28 22  1  0
 29  6  1  0
 29 16  1  0
 29 22  1  0
 30 22  1  0
M  RAD  1  29   2
M  END
>  <ID>  (1) 
conformer_0

$$$$
