
     RDKit          3D

 29 30  0  0  0  0  0  0  0  0999 V2000
   42.9009   36.8572   90.0743 C   0  0  0  0  0  0  0  0  0  0  0  0
   40.8905   37.8052   85.6075 C   0  0  0  0  0  0  0  0  0  0  0  0
   45.1040   38.3103   83.4714 C   0  0  0  0  0  0  0  0  0  0  0  0
   40.1667   37.4063   84.3587 C   0  0  0  0  0  0  0  0  0  0  0  0
   42.1841   36.4095   85.4609 C   0  0  0  0  0  0  0  0  0  0  0  0
   41.8283   36.6013   88.9265 C   0  0  0  0  0  0  0  0  0  0  0  0
   45.7117   36.0224   78.4471 C   0  0  0  0  0  0  0  0  0  0  0  0
   44.6335   39.0895   81.2493 C   0  0  0  0  0  0  0  0  0  0  0  0
   44.0484   41.0613   80.3862 C   0  0  0  0  0  0  0  0  0  0  0  0
   46.6337   35.5895   79.3958 O   0  0  0  0  0  0  0  0  0  0  0  0
   44.9189   36.9764   79.0851 N   0  0  0  0  0  0  0  0  0  0  0  0
   45.5009   35.6145   77.0094 C   0  0  0  0  0  0  0  0  0  0  0  0
   44.3323   39.7932   80.1721 O   0  0  0  0  0  0  0  0  0  0  0  0
   45.3766   36.7995   81.5110 C   0  0  0  0  0  0  0  0  0  0  0  0
   47.0409   36.6527   84.9838 O   0  0  0  0  0  1  0  0  0  0  0  0
   45.2696   39.0553   85.1363 O   0  0  0  0  0  0  0  0  0  0  0  0
   45.7579   36.3710   84.5918 S   0  0  0  0  0  4  0  0  0  0  0  0
   42.5557   38.2169   90.2781 C   0  0  0  0  0  0  0  0  0  0  0  0
   42.2304   37.2658   87.5383 N   0  0  0  0  0  0  0  0  0  0  0  0
   41.8635   37.0543   86.1186 C   0  0  0  0  0  0  0  0  0  0  0  0
   43.9520   39.1494   85.4313 C   0  0  0  0  0  0  0  0  0  0  0  0
   44.6121   39.0532   82.3413 C   0  0  0  0  0  0  0  0  0  0  0  0
   40.5244   36.3254   83.6599 C   0  0  0  0  0  0  0  0  0  0  0  0
   43.7891   35.5531   86.6224 C   0  0  0  0  0  0  0  0  0  0  0  0
   41.9673   38.4458   88.0034 C   0  0  0  0  0  0  0  0  0  0  0  0
   45.6021   36.9692   82.8102 C   0  0  0  0  0  0  0  0  0  0  0  0
   45.0766   37.4687   80.5732 C   0  0  0  0  0  0  0  0  0  0  0  0
   45.6741   35.3167   84.6782 O   0  0  0  0  0  1  0  0  0  0  0  0
   41.7482   35.7508   84.1252 C   0  0  0  0  0  0  0  0  0  0  0  0
  4  2  2  0
  6  1  1  0
 10  7  2  0
 11  7  1  0
 12  7  1  0
 13  8  1  0
 13  9  1  0
 16  3  1  0
 17 15  1  0
 18  1  1  0
 19  6  1  0
 20  2  1  0
 20  5  2  0
 20 19  1  0
 21 16  1  0
 22  3  2  0
 22  8  1  0
 23  4  1  0
 24  5  1  0
 24 17  1  0
 25 19  1  0
 26  3  1  0
 26 14  2  0
 26 17  1  0
 27  8  2  0
 27 11  1  0
 27 14  1  0
 28 17  1  0
 29  5  1  0
 29 23  2  0
M  RAD  2  15   2  28   2
M  END
>  <ID>  (1) 
conformer_0

$$$$
