
     RDKit          3D

 26 28  0  0  0  0  0  0  0  0999 V2000
   40.2052   37.4047   84.1388 C   0  0  0  0  0  0  0  0  0  0  0  0
   45.6148   35.6110   77.7078 C   0  0  0  0  0  0  0  0  0  0  0  0
   42.5788   37.1841   89.9267 C   0  0  0  0  0  0  0  0  0  0  0  0
   44.7325   38.4637   81.7714 C   0  0  0  0  0  0  0  0  0  0  0  0
   41.0369   36.1928   83.8198 C   0  0  0  0  0  0  0  0  0  0  0  0
   43.9440   39.8168   85.3780 C   0  0  0  0  0  0  0  0  0  0  0  0
   41.9241   36.9926   88.6230 C   0  0  0  0  0  0  0  0  0  0  0  0
   45.4121   37.0675   82.8681 C   0  0  0  0  0  0  0  0  0  0  0  0
   41.9073   37.1112   85.9608 C   0  0  0  0  0  0  0  0  0  0  0  0
   45.2589   36.3650   81.4457 C   0  0  0  0  0  0  0  0  0  0  0  0
   46.8988   36.6950   84.9000 O   0  0  0  0  0  0  0  0  0  0  0  0
   42.1140   37.6385   87.1194 N   0  0  0  0  0  0  0  0  0  0  0  0
   45.7379   36.1823   84.2978 S   0  0  0  0  0  6  0  0  0  0  0  0
   45.2780   38.6635   84.6316 O   0  0  0  0  0  0  0  0  0  0  0  0
   44.0592   39.2372   79.9873 O   0  0  0  0  0  0  0  0  0  0  0  0
   44.6975   38.8644   82.1299 C   0  0  0  0  0  0  0  0  0  0  0  0
   42.9119   38.6553   89.0882 C   0  0  0  0  0  0  0  0  0  0  0  0
   40.6594   38.0290   85.3880 C   0  0  0  0  0  0  0  0  0  0  0  0
   45.4807   36.6171   78.3963 C   0  0  0  0  0  0  0  0  0  0  0  0
   44.2781   40.9769   80.2289 C   0  0  0  0  0  0  0  0  0  0  0  0
   42.7171   39.0230   87.3788 C   0  0  0  0  0  0  0  0  0  0  0  0
   45.3113   36.0495   76.5238 C   0  0  0  0  0  0  0  0  0  0  0  0
   44.7463   37.5844   80.3775 C   0  0  1  0  0  0  0  0  0  0  0  0
   44.0213   35.2988   85.6395 C   0  0  0  0  0  0  0  0  0  0  0  0
   45.8569   35.0404   84.4122 O   0  0  0  0  0  0  0  0  0  0  0  0
   42.0614   36.1372   84.9903 C   0  0  0  0  0  0  0  0  0  0  0  0
  5  1  2  0
  7  3  1  0
  8  4  1  0
 10  8  2  0
 12  7  1  0
 12  9  1  0
 13  8  1  0
 13 11  1  0
 14  6  1  0
 14 13  1  0
 16  4  2  3
 17  3  1  0
 18  1  1  0
 18  9  1  0
 19  2  1  0
 20 15  1  0
 21 12  1  0
 21 17  1  0
 22  2  1  0
 23  4  1  0
 23 10  1  0
 23 15  1  0
 23 19  1  6
 24 13  1  0
 25 13  1  0
 26  5  1  0
 26  9  2  0
 26 24  1  0
M  END
>  <ID>  (1) 
conformer_0

$$$$
