
     RDKit          3D

 24 26  0  0  0  0  0  0  0  0999 V2000
   44.3296   38.6976   80.8250 C   0  0  0  0  0  0  0  0  0  0  0  0
   43.1195   38.2700   89.9280 C   0  0  0  0  0  0  0  0  0  0  0  0
   40.6651   36.3666   83.7315 C   0  0  0  0  0  0  0  0  0  0  0  0
   40.4841   37.2378   84.8912 C   0  0  0  0  0  0  0  0  0  0  0  0
   44.9743   37.8436   82.8447 C   0  0  0  0  0  0  0  0  0  0  0  0
   41.8957   37.0379   85.9441 C   0  0  0  0  0  0  0  0  0  0  0  0
   42.2332   38.9022   88.0205 C   0  0  0  0  0  0  0  0  0  0  0  0
   45.6805   36.4059   84.1890 S   0  0  0  0  0  6  0  0  0  0  0  0
   44.1226   40.8967   79.9840 C   0  0  0  0  0  0  0  0  0  0  0  0
   41.9895   37.5389   87.3287 N   0  0  0  0  0  0  0  0  0  0  0  0
   46.8926   36.6655   84.8242 O   0  0  0  0  0  0  0  0  0  0  0  0
   43.7698   39.4311   79.9918 O   0  0  0  0  0  0  0  0  0  0  0  0
   46.3595   36.1347   79.1801 O   0  0  0  0  0  0  0  0  0  0  0  0
   45.7882   35.9587   78.2818 C   0  0  0  0  0  0  0  0  0  0  0  0
   45.5781   34.7321   83.6557 O   0  0  0  0  0  0  0  0  0  0  0  0
   42.5290   37.1129   90.0290 C   0  0  0  0  0  0  0  0  0  0  0  0
   44.3892   38.8925   82.1943 C   0  0  0  0  0  0  0  0  0  0  0  0
   45.0318   37.3556   80.1771 C   0  0  0  0  0  0  0  0  0  0  0  0
   42.0046   36.3416   84.2749 C   0  0  0  0  0  0  0  0  0  0  0  0
   45.3598   35.6372   76.9437 C   0  0  0  0  0  0  0  0  0  0  0  0
   41.7472   36.8776   88.5092 C   0  0  0  0  0  0  0  0  0  0  0  0
   45.3450   38.9395   85.4032 O   0  0  0  0  0  0  0  0  0  0  0  0
   45.5662   36.4786   81.2828 C   0  0  0  0  0  0  0  0  0  0  0  0
   45.3976   36.7021   81.8096 C   0  0  0  0  0  0  0  0  0  0  0  0
  4  3  2  0
  6  4  1  0
  8  5  1  0
 10  6  1  0
 10  7  1  0
 11  8  1  0
 12  1  1  0
 12  9  1  0
 14 13  1  0
 15  8  1  0
 16  2  1  0
 17  1  2  0
 17  5  1  0
 18  1  1  0
 18 13  1  0
 19  3  1  0
 19  4  1  0
 19  6  1  0
 19  8  1  0
 20 14  1  0
 21 10  1  0
 21 16  1  0
 22  8  1  0
 23 18  2  0
 24  5  2  0
 24 23  1  0
M  END
>  <ID>  (1) 
conformer_0

$$$$
