
     RDKit          3D

 24 25  0  0  0  0  0  0  0  0999 V2000
   40.5950   37.9669   85.0030 C   0  0  0  0  0  0  0  0  0  0  0  0
   44.4513   38.7282   81.2764 C   0  0  0  0  0  0  0  0  0  0  0  0
   43.3257   38.8222   89.5104 C   0  0  0  0  0  0  0  0  0  0  0  0
   40.4667   36.9600   83.8818 C   0  0  0  0  0  0  0  0  0  0  0  0
   42.8738   39.3437   87.4418 C   0  0  0  0  0  0  0  0  0  0  0  0
   41.6950   36.9943   86.0257 C   0  0  0  0  0  0  0  0  0  0  0  0
   45.3639   37.1504   82.8611 C   0  0  0  0  0  0  0  0  0  0  0  0
   41.7636   37.1977   88.5269 C   0  0  0  0  0  0  0  0  0  0  0  0
   44.0646   39.4025   80.1413 O   0  0  0  0  0  0  0  0  0  0  0  0
   44.2688   40.8378   80.0212 C   0  0  0  0  0  0  0  0  0  0  0  0
   45.3321   36.4585   81.4758 C   0  0  0  0  0  0  0  0  0  0  0  0
   45.6021   35.5282   77.4232 C   0  0  0  0  0  0  0  0  0  0  0  0
   46.8051   35.8779   79.3089 O   0  0  0  0  0  0  0  0  0  0  0  0
   46.7581   36.5473   84.7562 O   0  0  0  0  0  1  0  0  0  0  0  0
   46.0167   35.8608   78.7529 C   0  0  0  0  0  0  0  0  0  0  0  0
   41.5927   36.1716   84.6516 C   0  0  0  0  0  0  0  0  0  0  0  0
   41.9916   37.5695   87.2739 N   0  0  0  0  0  0  0  0  0  0  0  0
   44.9894   38.8840   85.1231 O   0  0  0  0  0  0  0  0  0  0  0  0
   46.0777   34.7027   83.3983 O   0  0  0  0  0  1  0  0  0  0  0  0
   45.7642   36.1749   84.1637 S   0  0  0  0  0  4  0  0  0  0  0  0
   44.7452   38.7938   82.5376 C   0  0  0  0  0  0  0  0  0  0  0  0
   45.1310   37.1729   80.6915 C   0  0  0  0  0  0  0  0  0  0  0  0
   44.1326   35.4643   85.8540 C   0  0  0  0  0  0  0  0  0  0  0  0
   42.7014   37.3479   89.6991 C   0  0  0  0  0  0  0  0  0  0  0  0
  4  1  1  0
  6  1  2  0
  9  2  1  0
 10  9  1  0
 11  7  2  0
 15 11  1  0
 15 12  1  0
 15 13  2  0
 16  4  1  0
 16  6  1  0
 17  5  1  0
 17  6  1  0
 17  8  1  0
 20  7  1  0
 20 14  1  0
 20 19  1  0
 21  2  2  0
 21  7  1  0
 21 18  1  0
 22  2  1  0
 22 11  1  0
 23 16  1  0
 23 20  1  0
 24  3  1  0
 24  8  1  0
M  RAD  2  14   2  19   2
M  END
>  <ID>  (1) 
conformer_0

$$$$
