
     RDKit          3D

 31 33  0  0  0  0  0  0  0  0999 V2000
   40.3861   37.1032   83.8650 C   0  0  0  0  0  0  0  0  0  0  0  0
   45.5820   37.0674   82.8127 C   0  0  0  0  0  0  0  0  0  0  0  0
   42.7158   36.7897   89.5920 C   0  0  2  0  0  0  0  0  0  0  0  0
   40.8820   37.7187   85.1610 C   0  0  0  0  0  0  0  0  0  0  0  0
   45.7511   35.6114   77.5047 C   0  0  0  0  0  0  0  0  0  0  0  0
   45.1690   37.2901   80.5744 C   0  0  0  0  0  3  0  0  0  0  0  0
   41.7350   36.7266   88.6444 C   0  0  0  0  0  0  0  0  0  0  0  0
   44.4435   39.1036   79.6772 O   0  0  0  0  0  0  0  0  0  0  0  0
   45.6482   36.2199   84.4472 S   0  0  0  0  0  6  0  0  0  0  0  0
   45.6381   36.4800   78.3545 C   0  0  0  0  0  0  0  0  0  0  0  0
   41.8214   36.8128   85.9716 C   0  0  0  0  0  0  0  0  0  0  0  0
   44.3829   39.5580   84.7918 O   0  0  0  0  0  0  0  0  0  0  0  0
   41.9332   35.9166   85.0096 C   0  0  0  0  0  0  0  0  0  0  0  0
   43.2313   38.0058   89.3657 C   0  0  0  0  0  0  0  0  0  0  0  0
   45.6833   36.3708   81.6838 C   0  0  0  0  0  0  0  0  0  0  0  0
   45.3320   37.8491   85.6279 O   0  0  0  0  0  0  0  0  0  0  0  0
   42.1901   38.8135   87.4236 C   0  0  0  0  0  0  0  0  0  0  0  0
   45.9931   36.5410   79.4579 O   0  0  0  0  0  0  0  0  0  0  0  0
   44.4909   38.6728   80.9880 C   0  0  1  0  0  0  0  0  0  0  0  0
   43.6841   35.0191   86.3849 C   0  0  0  0  0  0  0  0  0  0  0  0
   45.8092   34.7965   83.8076 O   0  0  0  0  0  0  0  0  0  0  0  0
   43.6099   39.5997   81.6201 O   0  0  0  0  0  0  0  0  0  0  0  0
   43.3626   40.0265   84.8423 C   0  0  0  0  0  0  0  0  0  0  0  0
   42.1570   36.9506   87.0435 N   0  0  0  0  0  0  0  0  0  0  0  0
   43.7397   40.9850   80.9978 C   0  0  0  0  0  0  0  0  0  0  0  0
   41.3950   37.4653   88.0452 N   0  0  0  0  0  0  0  0  0  0  0  0
   41.2320   36.0046   83.6413 C   0  0  0  0  0  0  0  0  0  0  0  0
   44.8302   38.8281   82.4886 C   0  0  0  0  0  0  0  0  0  0  0  0
   44.6855   38.5723   82.8644 C   0  0  0  0  0  0  0  0  0  0  0  0
   46.5113   35.9391   85.3720 O   0  0  0  0  0  0  0  0  0  0  0  0
   42.8406   39.2010   88.2290 C   0  0  0  0  0  0  0  0  0  0  0  0
  4  1  2  0
  7  3  1  0
  9  2  1  0
 10  5  2  3
 11  4  1  0
 13 11  2  0
 14  3  1  0
 15  2  2  0
 15  6  1  0
 16  9  1  0
 18  6  1  0
 18 10  1  0
 19  6  1  0
 19  8  1  6
  3 20  1  6
 20  9  1  0
 21  9  1  0
 22 19  1  0
 23 12  1  0
 24 11  1  0
 25 22  1  0
 26  7  1  0
 26 17  1  0
 26 24  1  0
 27  1  1  0
 27 13  1  0
 28 19  1  0
 29  2  1  0
 29 12  1  0
 29 28  2  0
 30  9  1  0
 31 14  1  0
 31 17  1  0
M  RAD  1   6   2
M  END
>  <ID>  (1) 
conformer_0

$$$$
