
     RDKit          3D

 30 30  0  0  0  0  0  0  0  0999 V2000
   40.6672   38.2297   85.3031 C   0  0  0  0  0  0  0  0  0  0  0  0
   44.5333   37.7772   80.6590 C   0  0  0  0  0  0  0  0  0  0  0  0
   41.6603   36.1364   85.2507 C   0  0  0  0  0  0  0  0  0  0  0  0
   42.9153   38.4815   89.3070 C   0  0  0  0  0  0  0  0  0  0  0  0
   45.3761   36.6654   80.3786 C   0  0  1  0  0  0  0  0  0  0  0  0
   42.3768   36.2829   88.2074 C   0  0  0  0  0  0  0  0  0  0  0  0
   41.5166   37.4245   86.2038 C   0  0  0  0  0  0  0  0  0  0  0  0
   46.7022   35.5936   79.0476 O   0  0  0  0  0  0  0  0  0  0  0  0
   42.4196   38.7742   87.9587 C   0  0  0  0  0  0  0  0  0  0  0  0
   43.7506   40.9809   80.4418 C   0  0  0  0  0  0  0  0  0  0  0  0
   43.9326   39.6814   80.5229 O   0  0  0  0  0  0  0  0  0  0  0  0
   42.1283   37.6529   87.3372 N   0  0  0  0  0  0  0  0  0  0  0  0
   47.0317   36.2273   84.6385 O   0  0  0  0  0  1  0  0  0  0  0  0
   45.8130   35.8690   78.0667 C   0  0  0  0  0  0  0  0  0  0  0  0
   44.5044   35.4557   86.7449 C   0  0  0  0  0  0  0  0  0  0  0  0
   44.5341   38.5345   82.8171 C   0  0  0  0  0  0  0  0  0  0  0  0
   40.1255   37.6283   84.1058 C   0  0  0  0  0  0  0  0  0  0  0  0
   45.4443   36.5333   82.6101 C   0  0  0  0  0  0  0  0  0  0  0  0
   45.8532   35.9807   84.2404 S   0  0  0  0  0  4  0  0  0  0  0  0
   44.7235   39.1855   84.8695 O   0  0  0  0  0  0  0  0  0  0  0  0
   43.2639   36.0506   89.0878 C   0  0  0  0  0  0  0  0  0  0  0  0
   45.4862   35.8035   76.8153 C   0  0  0  0  0  0  0  0  0  0  0  0
   45.5799   36.3645   81.6696 C   0  0  0  0  0  0  0  0  0  0  0  0
   45.8579   34.5541   83.5209 O   0  0  0  0  0  1  0  0  0  0  0  0
   44.2302   39.0020   81.4417 C   0  0  0  0  0  0  0  0  0  0  0  0
   45.0641   35.9003   85.5092 N   0  0  0  0  0  0  0  0  0  0  0  0
   43.0874   39.9294   85.8299 C   0  0  0  0  0  0  0  0  0  0  0  0
   40.8401   36.3390   83.9471 C   0  0  0  0  0  0  0  0  0  0  0  0
   44.8290   38.3719   83.4355 C   0  0  0  0  0  0  0  0  0  0  0  0
   45.2799   36.6585   79.1952 O   0  0  0  0  0  0  0  0  0  0  0  0
  5  2  1  1
  7  1  2  0
  7  3  1  0
  9  4  1  0
 11 10  1  0
 12  6  1  0
 12  7  1  0
 12  9  1  0
 14  8  2  0
 17  1  1  0
 19 13  1  0
 19 18  1  0
 21  6  1  0
 21 15  1  0
 22 14  1  0
 23  5  1  0
 23 18  2  3
 24 19  1  0
 25  2  1  0
 25 11  1  0
 25 16  2  0
 26 15  1  0
 26 19  1  0
 27 20  1  0
 28  3  2  0
 28 17  1  0
 29 16  2  0
 29 20  1  0
 30  5  1  0
 30 14  1  0
M  RAD  2  13   2  24   2
M  END
>  <ID>  (1) 
conformer_0

$$$$
