
     RDKit          3D

 29 29  0  0  0  0  0  0  0  0999 V2000
   41.0824   38.0684   85.2993 C   0  0  0  0  0  0  0  0  0  0  0  0
   43.2208   36.8909   89.5887 C   0  0  0  0  0  0  0  0  0  0  0  0
   40.1290   37.6370   84.4651 C   0  0  0  0  0  0  0  0  0  0  0  0
   44.9543   38.3909   83.2757 C   0  0  2  0  0  0  0  0  0  0  0  0
   42.5482   37.3813   87.0402 N   0  0  0  0  0  0  0  0  0  0  0  0
   45.3064   36.4125   81.5988 C   0  0  0  0  0  0  0  0  0  0  0  0
   41.9447   37.1519   88.4706 C   0  0  0  0  0  0  0  0  0  0  0  0
   44.4212   39.5793   84.1904 O   0  0  0  0  0  0  0  0  0  0  0  0
   46.7870   35.7989   79.4805 O   0  0  0  0  0  0  0  0  0  0  0  0
   44.9301   36.8721   79.2585 N   0  0  0  0  0  0  0  0  0  0  0  0
   44.3863   38.9507   81.2307 C   0  0  0  0  0  0  0  0  0  0  0  0
   43.9493   39.5977   80.1875 O   0  0  0  0  0  0  0  0  0  0  0  0
   42.3141   36.1816   85.0196 C   0  0  0  0  0  0  0  0  0  0  0  0
   43.9386   40.9730   80.6486 C   0  0  0  0  0  0  0  0  0  0  0  0
   42.0584   37.1113   85.8936 C   0  0  0  0  0  0  0  0  0  0  0  0
   45.5805   35.5996   77.2576 C   0  0  0  0  0  0  0  0  0  0  0  0
   45.7968   35.9844   78.6167 C   0  0  0  0  0  0  0  0  0  0  0  0
   44.1163   35.4426   86.4041 C   0  0  0  0  0  0  0  0  0  0  0  0
   45.6710   37.5446   85.4140 O   0  0  0  0  0  0  0  0  0  0  0  0
   45.6846   36.1036   84.3989 S   0  0  0  0  0  6  0  0  0  0  0  0
   43.2601   38.1945   89.4752 C   0  0  0  0  0  0  0  0  0  0  0  0
   45.5040   34.8797   84.1828 O   0  0  0  0  0  0  0  0  0  0  0  0
   44.6239   38.6844   81.9156 C   0  0  0  0  0  0  0  0  0  0  0  0
   45.5579   36.7494   82.7673 C   0  0  2  0  0  0  0  0  0  0  0  0
   40.4039   36.6373   83.5432 C   0  0  0  0  0  0  0  0  0  0  0  0
   42.8932   38.7765   87.1119 C   0  0  0  0  0  0  0  0  0  0  0  0
   45.1064   37.2118   80.5446 C   0  0  0  0  0  0  0  0  0  0  0  0
   47.1218   36.2287   84.7165 O   0  0  0  0  0  0  0  0  0  0  0  0
   41.4242   35.7516   84.0455 C   0  0  0  0  0  0  0  0  0  0  0  0
  3  1  2  0
  7  2  1  0
  7  5  1  0
  4  8  1  1
 12 11  1  0
 14 12  1  0
 15  1  1  0
 15  5  1  0
 15 13  2  0
 17  9  2  0
 17 10  1  0
 17 16  1  0
 18 13  1  0
 20 18  1  0
 20 19  1  0
 21  2  1  0
 22 20  1  0
 23  4  1  0
 23 11  3  0
 24  4  1  0
 24  6  1  0
 24 20  1  1
 25  3  1  0
 26  5  1  0
 27  6  2  3
 27 10  1  0
 28 20  1  0
 29 13  1  0
 29 25  2  0
M  END
>  <ID>  (1) 
conformer_0

$$$$
