
     RDKit          3D

 30 31  0  0  0  0  0  0  0  0999 V2000
   40.6635   38.1283   85.6374 C   0  0  0  0  0  0  0  0  0  0  0  0
   44.4558   39.0999   81.4114 C   0  0  0  0  0  0  0  0  0  0  0  0
   42.7147   36.9558   89.9448 C   0  0  2  0  0  0  0  0  0  0  0  0
   41.5152   35.9932   83.9287 C   0  0  0  0  0  0  0  0  0  0  0  0
   45.3919   35.2739   77.0656 C   0  0  0  0  0  0  0  0  0  0  0  0
   45.0588   38.0735   83.4821 C   0  0  0  0  0  0  0  0  0  0  0  0
   41.8115   36.9207   88.6675 C   0  0  2  0  0  0  0  0  0  0  0  0
   45.7295   36.0835   78.3739 C   0  0  0  0  0  0  0  0  0  0  0  0
   44.9319   37.0385   79.2244 N   0  0  0  0  0  0  0  0  0  0  0  0
   42.2424   37.3030   87.1925 N   0  0  0  0  0  0  0  0  0  0  0  0
   44.2492   41.0682   80.2588 C   0  0  0  0  0  0  0  0  0  0  0  0
   46.6591   35.8201   79.3738 O   0  0  0  0  0  0  0  0  0  0  0  0
   44.1823   39.8323   80.3762 O   0  0  0  0  0  0  0  0  0  0  0  0
   42.3114   36.5153   85.0893 C   0  0  0  0  0  0  0  0  0  0  0  0
   41.6985   37.3039   85.9604 C   0  0  0  0  0  0  0  0  0  0  0  0
   46.8979   36.3335   84.9415 O   0  0  0  0  0  1  0  0  0  0  0  0
   45.2193   36.6491   81.7827 C   0  0  0  0  0  0  0  0  0  0  0  0
   45.7007   36.1156   84.3218 S   0  0  0  0  0  4  0  0  0  0  0  0
   42.9474   38.9659   87.3121 C   0  0  0  0  0  0  0  0  0  0  0  0
   42.8319   38.3922   89.3830 C   0  0  0  0  0  0  0  0  0  0  0  0
   45.0036   38.9780   84.7026 O   0  0  0  0  0  0  0  0  0  0  0  0
   44.7934   37.8466   80.5438 C   0  0  0  0  0  0  0  0  0  0  0  0
   45.5268   34.8692   83.9115 O   0  0  0  0  0  1  0  0  0  0  0  0
   40.3078   36.8115   83.6553 C   0  0  0  0  0  0  0  0  0  0  0  0
   44.6545   38.9130   82.8103 C   0  0  0  0  0  0  0  0  0  0  0  0
   43.3569   35.5386   88.5787 C   0  0  0  0  0  0  0  0  0  0  0  0
   45.4092   36.6873   82.1247 C   0  0  0  0  0  0  0  0  0  0  0  0
   42.8818   35.5318   87.3905 C   0  0  0  0  0  0  0  0  0  0  0  0
   45.6203   36.9907   76.2463 C   0  0  0  0  0  0  0  0  0  0  0  0
   39.8980   37.7820   84.5300 C   0  0  0  0  0  0  0  0  0  0  0  0
  7  3  1  0
  8  5  1  0
  9  8  1  0
  7 10  1  6
 12  8  2  0
 13  2  1  0
 13 11  1  0
 14  4  2  0
 15  1  2  0
 15 10  1  0
 15 14  1  0
 18  6  1  0
 18 14  1  0
 18 16  1  0
 19 10  1  0
  3 20  1  6
 20  7  1  0
 21  6  2  0
 22  2  1  0
 22  9  2  3
 22 17  1  0
 23 18  1  0
 24  4  1  0
 25  2  2  3
 25  6  1  0
 26  3  1  0
 27 17  2  3
 28 26  2  3
 29  5  1  0
 30  1  1  0
 30 24  2  0
M  RAD  2  16   2  23   2
M  END
>  <ID>  (1) 
conformer_0

$$$$
