
     RDKit          3D

 29 31  0  0  0  0  0  0  0  0999 V2000
   43.3600   36.1512   89.2904 C   0  0  0  0  0  0  0  0  0  0  0  0
   41.9422   36.1274   84.4930 C   0  0  0  0  0  0  0  0  0  0  0  0
   44.8897   37.2585   80.4941 C   0  0  0  0  0  0  0  0  0  0  0  0
   40.8237   36.2041   83.4387 C   0  0  0  0  0  0  0  0  0  0  0  0
   45.4377   37.2798   82.9649 C   0  0  0  0  0  0  0  0  0  0  0  0
   42.4669   36.1247   87.9527 C   0  0  0  0  0  0  0  0  0  0  0  0
   41.7717   37.1561   85.7686 C   0  0  0  0  0  0  0  0  0  0  0  0
   47.2359   36.5157   84.6391 O   0  0  0  0  0  1  0  0  0  0  0  0
   43.8305   39.4093   80.3371 O   0  0  0  0  0  0  0  0  0  0  0  0
   42.1230   37.2199   86.9008 N   0  0  0  0  0  0  0  0  0  0  0  0
   44.8648   39.6283   84.4289 O   0  0  0  0  0  0  0  0  0  0  0  0
   45.4519   36.5530   81.7196 C   0  0  0  0  0  0  0  0  0  0  0  0
   46.0129   36.0259   84.2529 S   0  0  0  0  0  4  0  0  0  0  0  0
   44.7528   36.9622   79.0587 N   0  0  0  0  0  0  0  0  0  0  0  0
   45.5522   36.6353   77.9094 C   0  0  0  0  0  0  0  0  0  0  0  0
   44.3641   35.2072   86.3122 C   0  0  0  0  0  0  0  0  0  0  0  0
   46.5307   36.2176   78.6834 O   0  0  0  0  0  0  0  0  0  0  0  0
   42.7458   37.1086   90.0360 C   0  0  0  0  0  0  0  0  0  0  0  0
   45.3660   36.2220   76.5357 C   0  0  0  0  0  0  0  0  0  0  0  0
   43.5466   40.4526   84.3647 C   0  0  0  0  0  0  0  0  0  0  0  0
   40.9877   38.1256   85.0744 C   0  0  0  0  0  0  0  0  0  0  0  0
   44.3054   38.6682   80.9111 C   0  0  0  0  0  0  0  0  0  0  0  0
   45.8633   34.9250   83.9060 O   0  0  0  0  0  1  0  0  0  0  0  0
   41.9617   38.3530   87.8408 C   0  0  0  0  0  0  0  0  0  0  0  0
   43.7113   41.0517   80.6599 C   0  0  0  0  0  0  0  0  0  0  0  0
   40.0531   37.3714   84.1161 C   0  0  0  0  0  0  0  0  0  0  0  0
   44.5527   38.6375   82.2985 C   0  0  0  0  0  0  0  0  0  0  0  0
   44.6379   38.9009   83.0051 C   0  0  0  0  0  0  0  0  0  0  0  0
   42.5859   38.4507   89.1077 C   0  0  0  0  0  0  0  0  0  0  0  0
  4  2  2  0
  6  1  1  0
  7  2  1  0
 10  6  1  0
 10  7  1  0
 12  3  2  0
 12  5  1  0
 13  5  1  0
 13  8  1  0
 14  3  1  0
 15 14  1  0
 16  1  1  0
 16 13  1  0
 17 15  2  0
 18  1  1  0
 19 15  1  0
 20 11  1  0
 21  7  1  0
 22  3  1  0
 22  9  1  0
 23 13  1  0
 24 10  1  0
 25  9  1  0
 26  4  1  0
 26 21  2  0
 27  5  2  0
 27 22  1  0
 28 11  1  0
 28 27  1  0
 29 18  1  0
 29 24  1  0
M  RAD  2   8   2  23   2
M  END
>  <ID>  (1) 
conformer_0

$$$$
