
     RDKit          3D

 24 25  0  0  0  0  0  0  0  0999 V2000
   41.8161   35.9330   84.5486 C   0  0  0  0  0  0  0  0  0  0  0  0
   42.7182   37.9359   89.3755 C   0  0  0  0  0  0  0  0  0  0  0  0
   44.3952   38.9267   81.4682 C   0  0  0  0  0  0  0  0  0  0  0  0
   40.6534   36.4549   83.8334 C   0  0  0  0  0  0  0  0  0  0  0  0
   41.8609   36.9656   86.0944 C   0  0  2  0  0  0  0  0  0  0  0  0
   45.6248   36.4353   81.6685 C   0  0  0  0  0  0  0  0  0  0  0  0
   45.4428   37.6808   83.0308 C   0  0  0  0  0  0  0  0  0  0  0  0
   43.7533   39.9137   80.4474 O   0  0  0  0  0  0  0  0  0  0  0  0
   47.1003   36.9673   84.9743 O   0  0  0  0  0  1  0  0  0  0  0  0
   43.7230   41.1942   80.7145 C   0  0  0  0  0  0  0  0  0  0  0  0
   46.8301   35.8182   79.3023 O   0  0  0  0  0  0  0  0  0  0  0  0
   44.8442   37.0004   79.3584 N   0  0  0  0  0  0  0  0  0  0  0  0
   45.8551   36.0779   78.8211 C   0  0  0  0  0  0  0  0  0  0  0  0
   46.1171   36.3960   84.4041 S   0  0  0  0  0  4  0  0  0  0  0  0
   44.2561   35.2624   86.3708 C   0  0  0  0  0  0  0  0  0  0  0  0
   42.2129   36.9111   87.1264 N   0  0  0  0  0  0  0  0  0  0  0  0
   42.3245   39.1135   87.8657 C   0  0  0  0  0  0  0  0  0  0  0  0
   45.4340   36.1161   76.9157 C   0  0  0  0  0  0  0  0  0  0  0  0
   40.6352   37.5623   84.8921 C   0  0  0  0  0  0  0  0  0  0  0  0
   44.6134   38.8373   82.4882 C   0  0  0  0  0  0  0  0  0  0  0  0
   41.9634   36.3109   88.3283 C   0  0  0  0  0  0  0  0  0  0  0  0
   44.8976   37.5791   80.7396 C   0  0  1  0  0  0  0  0  0  0  0  0
   42.5452   36.9301   89.7094 C   0  0  0  0  0  0  0  0  0  0  0  0
   46.3966   35.2189   84.0773 O   0  0  0  0  0  1  0  0  0  0  0  0
  4  1  2  0
  5  1  1  0
  7  6  2  0
  8  3  1  0
 10  8  1  0
 13 11  2  0
 13 12  1  0
 14  7  1  0
 14  9  1  0
 15  1  1  0
 15 14  1  0
 16  5  1  0
 17  2  1  0
 18 13  1  0
 19  4  1  0
  5 19  1  1
 20  3  2  0
 20  7  1  0
 21 16  2  3
 22  3  1  0
 22  6  1  0
 22 12  1  1
 23  2  1  0
 23 21  1  0
 24 14  1  0
M  RAD  2   9   2  24   2
M  END
>  <ID>  (1) 
conformer_0

$$$$
