
     RDKit          3D

 29 31  0  0  0  0  0  0  0  0999 V2000
   41.0326   38.1757   85.5680 C   0  0  0  0  0  0  0  0  0  0  0  0
   42.0886   37.3869   90.5013 C   0  0  0  0  0  0  0  0  0  0  0  0
   45.2679   38.2894   83.5142 C   0  0  0  0  0  0  0  0  0  0  0  0
   40.1289   38.0179   84.4838 C   0  0  0  0  0  0  0  0  0  0  0  0
   44.4623   38.9339   80.8535 C   0  0  0  0  0  0  0  0  0  0  0  0
   44.6048   38.9451   82.2498 C   0  0  0  0  0  0  0  0  0  0  0  0
   44.0922   39.6541   79.8646 O   0  0  0  0  0  0  0  0  0  0  0  0
   42.0215   38.5534   88.6936 C   0  0  0  0  0  0  0  0  0  0  0  0
   45.7818   36.2759   78.3298 C   0  0  0  0  0  0  0  0  0  0  0  0
   45.3137   38.8487   84.6718 O   0  0  0  0  0  0  0  0  0  0  0  0
   41.8670   36.2098   85.3591 C   0  0  0  0  0  0  0  0  0  0  0  0
   42.1192   37.5552   87.5965 N   0  0  0  0  0  0  0  0  0  0  0  0
   44.9561   36.9936   79.0611 N   0  0  0  0  0  0  0  0  0  0  0  0
   43.9997   39.7446   85.3924 C   0  0  0  0  0  0  0  0  0  0  0  0
   46.7703   35.8304   78.7610 O   0  0  0  0  0  0  0  0  0  0  0  0
   44.2494   40.9470   79.8751 C   0  0  0  0  0  0  0  0  0  0  0  0
   41.7456   37.2431   86.1731 C   0  0  0  0  0  0  0  0  0  0  0  0
   45.4123   36.7584   81.6923 C   0  0  0  0  0  0  0  0  0  0  0  0
   45.8915   36.2013   85.3205 O   0  0  0  0  0  1  0  0  0  0  0  0
   45.7783   35.9192   84.1218 S   0  0  0  0  0  3  0  0  0  0  0  0
   45.4951   36.1292   76.6529 C   0  0  0  0  0  0  0  0  0  0  0  0
   43.0619   36.5750   89.3963 C   0  0  0  0  0  0  0  0  0  0  0  0
   41.1504   35.8884   84.0737 C   0  0  0  0  0  0  0  0  0  0  0  0
   45.8569   34.6215   83.7129 O   0  0  0  0  0  0  0  0  0  0  0  0
   45.0267   37.4015   80.5617 C   0  0  0  0  0  0  0  0  0  0  0  0
   45.5357   36.7589   82.8606 C   0  0  0  0  0  0  0  0  0  0  0  0
   42.1479   36.5112   88.2718 C   0  0  0  0  0  0  0  0  0  0  0  0
   40.2185   36.8661   83.6622 C   0  0  0  0  0  0  0  0  0  0  0  0
   42.9730   38.5304   90.1408 C   0  0  0  0  0  0  0  0  0  0  0  0
  4  1  2  0
  6  3  1  0
  6  5  2  0
  7  5  1  0
 10  3  1  0
 12  8  1  0
 13  9  1  0
 14  1  1  0
 14 10  1  0
 15  9  2  0
 16  7  1  0
 17  1  1  0
 17 11  2  0
 17 12  1  0
 20 19  1  0
 21  9  1  0
 22  2  1  0
 23 11  1  0
 24 20  1  0
 25  5  1  0
 25 13  1  0
 25 18  2  0
 26  3  2  0
 26 18  1  0
 26 20  1  0
 27 12  1  0
 27 22  1  0
 28  4  1  0
 28 23  2  0
 29  2  1  0
 29  8  1  0
M  RAD  2  19   2  20   2
M  END
>  <ID>  (1) 
conformer_0

$$$$
