
     RDKit          3D

 25 28  0  0  0  0  0  0  0  0999 V2000
   41.8909   36.0865   84.7306 C   0  0  0  0  0  0  0  0  0  0  0  0
   43.0199   38.0731   89.4640 C   0  0  0  0  0  0  0  0  0  0  0  0
   45.0664   37.0766   80.6024 C   0  0  0  0  0  0  0  0  0  0  0  0
   40.7145   36.2101   83.7089 C   0  0  0  0  0  0  0  0  0  0  0  0
   41.9686   37.1387   85.8754 C   0  0  0  0  0  0  0  0  0  0  0  0
   42.4955   37.2395   87.0474 N   0  0  0  0  0  0  0  0  0  0  0  0
   44.1907   40.8729   80.3032 C   0  0  0  0  0  0  0  0  0  0  0  0
   42.1960   37.4756   88.3864 C   0  0  0  0  0  0  0  0  0  0  0  0
   45.5260   36.7472   82.6479 C   0  0  0  0  0  0  0  0  0  0  0  0
   45.8505   35.8238   78.4562 C   0  0  0  0  0  0  0  0  0  0  0  0
   46.6375   35.7703   79.3267 O   0  0  0  0  0  0  0  0  0  0  0  0
   44.0353   39.6031   80.2530 O   0  0  0  0  0  0  0  0  0  0  0  0
   45.4104   34.8967   84.1326 O   0  0  0  0  0  1  0  0  0  0  0  0
   45.7996   36.4269   84.2165 S   0  0  0  0  0  4  0  0  0  0  0  0
   44.9686   36.7438   79.1222 N   0  0  0  0  0  0  0  0  0  0  0  0
   44.7691   37.4033   81.5027 C   0  0  0  0  0  0  0  0  0  0  0  0
   40.8124   37.9634   85.3067 C   0  0  0  0  0  0  0  0  0  0  0  0
   45.2647   38.9974   84.9003 O   0  0  0  0  0  0  0  0  0  0  0  0
   43.3573   36.7758   89.3277 C   0  0  0  0  0  0  0  0  0  0  0  0
   43.3710   39.5534   85.6165 C   0  0  0  0  0  0  0  0  0  0  0  0
   44.4498   38.8051   81.3374 C   0  0  0  0  0  0  0  0  0  0  0  0
   47.1084   36.3313   84.4822 O   0  0  0  0  0  1  0  0  0  0  0  0
   43.5519   36.0039   87.0449 C   0  0  0  0  0  0  0  0  0  0  0  0
   40.0364   37.3717   84.2105 C   0  0  0  0  0  0  0  0  0  0  0  0
   45.0130   38.3147   83.0965 C   0  0  0  0  0  0  0  0  0  0  0  0
  4  1  2  0
  5  1  1  0
  6  5  1  0
  8  2  1  0
  8  6  1  0
 11 10  1  0
 12  7  1  0
 14  9  1  0
 14 13  1  0
 15  3  1  0
 15 10  1  0
 16  3  1  0
 16  9  1  0
 17  5  1  0
 19  2  1  0
 19  8  1  0
 20 17  1  0
 20 18  1  0
 21 12  1  0
 21 16  1  0
 22 14  1  0
 23  6  1  0
 23 14  1  0
 24  4  1  0
 24 17  2  0
 25  9  1  0
 25 16  1  0
 25 21  2  0
M  RAD  2  13   2  22   2
M  END
>  <ID>  (1) 
conformer_0

$$$$
