
     RDKit          3D

 28 29  0  0  0  0  0  0  0  0999 V2000
   42.4207   38.1100   90.1322 C   0  0  0  0  0  0  0  0  0  0  0  0
   44.5697   38.4045   80.9372 C   0  0  0  0  0  0  0  0  0  0  0  0
   40.0467   37.4195   84.0224 C   0  0  0  0  0  0  0  0  0  0  0  0
   40.5904   38.0791   85.1131 C   0  0  0  0  0  0  0  0  0  0  0  0
   43.9105   39.2364   85.8915 C   0  0  0  0  0  0  0  0  0  0  0  0
   45.1173   37.5979   83.0767 C   0  0  0  0  0  0  0  0  0  0  0  0
   41.9120   37.2678   85.8173 C   0  0  0  0  0  0  0  0  0  0  0  0
   44.1465   41.0596   80.1367 C   0  0  0  0  0  0  0  0  0  0  0  0
   44.5710   38.6752   82.5490 C   0  0  0  0  0  0  0  0  0  0  0  0
   45.5446   36.1034   76.7777 C   0  0  0  0  0  0  0  0  0  0  0  0
   45.9247   35.9604   78.5986 C   0  0  0  0  0  0  0  0  0  0  0  0
   44.2707   39.6231   79.9782 O   0  0  0  0  0  0  0  0  0  0  0  0
   41.9978   37.0613   88.6529 C   0  0  0  0  0  0  0  0  0  0  0  0
   45.4270   38.7163   85.1774 O   0  0  0  0  0  0  0  0  0  0  0  0
   46.6864   35.8377   79.3669 O   0  0  0  0  0  0  0  0  0  0  0  0
   42.5711   37.4672   86.8486 N   0  0  0  0  0  0  0  0  0  0  0  0
   46.1332   34.7916   82.7759 O   0  0  0  0  0  0  0  0  0  0  0  0
   44.9811   37.0421   79.2393 N   0  0  0  0  0  0  0  0  0  0  0  0
   43.0161   39.0611   89.4473 C   0  0  0  0  0  0  0  0  0  0  0  0
   41.9190   36.2083   84.8257 C   0  0  0  0  0  3  0  0  0  0  0  0
   43.4848   35.6464   86.9490 C   0  0  0  0  0  0  0  0  0  0  0  0
   45.2352   36.8895   81.3347 C   0  0  0  0  0  0  0  0  0  0  0  0
   47.0391   36.4645   84.4503 O   0  0  0  0  0  0  0  0  0  0  0  0
   45.7157   36.2683   83.9948 S   0  0  0  0  0  6  0  0  0  0  0  0
   45.2151   35.0261   84.6566 O   0  0  0  0  0  0  0  0  0  0  0  0
   40.8626   36.2595   83.7248 C   0  0  0  0  0  0  0  0  0  0  0  0
   43.0733   36.5423   89.3123 C   0  0  0  0  0  0  0  0  0  0  0  0
   42.8088   38.9803   87.5947 C   0  0  0  0  0  0  0  0  0  0  0  0
  4  3  2  0
  7  4  1  0
  9  2  1  0
  9  6  2  0
 11 10  1  0
 12  2  1  0
 12  8  1  0
 13  1  1  0
 14  5  1  0
 15 11  2  0
 16  7  1  0
 18 11  1  0
 19  1  1  0
 20  7  1  0
 21  7  1  0
 22  2  1  0
 22  6  1  0
 22 18  1  0
 24  6  1  0
 24 17  1  0
 24 21  1  0
 24 23  1  0
 25 24  1  0
 26  3  1  0
 26 20  1  0
 27 13  1  0
 28  5  1  0
 28 16  1  0
 28 19  1  0
M  RAD  1  20   2
M  END
>  <ID>  (1) 
conformer_0

$$$$
