
     RDKit          3D

 28 29  0  0  0  0  0  0  0  0999 V2000
   40.9334   38.1294   85.3548 C   0  0  0  0  0  0  0  0  0  0  0  0
   42.8419   36.7450   89.9442 C   0  0  0  0  0  0  0  0  0  0  0  0
   44.4156   38.8458   81.2676 C   0  0  0  0  0  0  0  0  0  0  0  0
   41.8023   36.0132   85.1666 C   0  0  0  0  0  0  0  0  0  0  0  0
   41.7229   36.4648   88.7064 C   0  0  0  0  0  0  0  0  0  0  0  0
   45.6485   36.4109   81.8323 C   0  0  0  0  0  0  0  0  0  0  0  0
   44.0639   39.9936   80.6067 O   0  0  0  0  0  0  0  0  0  0  0  0
   46.6631   35.6641   79.0727 O   0  0  0  0  0  0  0  0  0  0  0  0
   45.7704   36.1385   78.3148 C   0  0  0  0  0  0  0  0  0  0  0  0
   45.0021   35.2936   86.3958 C   0  0  0  0  0  0  0  0  0  0  0  0
   44.0847   41.0769   80.6416 C   0  0  0  0  0  0  0  0  0  0  0  0
   45.6408   38.1987   85.5660 O   0  0  0  0  0  1  0  0  0  0  0  0
   41.7176   37.1581   86.0206 C   0  0  0  0  0  0  0  0  0  0  0  0
   44.8987   36.9299   78.8883 N   0  0  0  0  0  0  0  0  0  0  0  0
   40.1416   37.6184   84.2375 C   0  0  0  0  0  0  0  0  0  0  0  0
   45.5761   36.0742   76.4827 C   0  0  0  0  0  0  0  0  0  0  0  0
   44.9796   37.0537   80.5697 C   0  0  0  0  0  0  0  0  0  0  0  0
   41.9903   37.1574   87.3560 N   0  0  0  0  0  0  0  0  0  0  0  0
   46.3009   35.3602   84.3351 O   0  0  0  0  0  1  0  0  0  0  0  0
   45.7260   36.2739   84.6720 S   0  0  0  0  0  4  0  0  0  0  0  0
   45.5182   36.4703   82.5911 C   0  0  0  0  0  0  0  0  0  0  0  0
   42.2553   38.4814   87.5601 C   0  0  0  0  0  0  0  0  0  0  0  0
   44.5126   38.4492   82.1682 C   0  0  0  0  0  0  0  0  0  0  0  0
   42.6249   38.1860   89.2403 C   0  0  0  0  0  0  0  0  0  0  0  0
   43.7921   40.4955   84.3084 C   0  0  0  0  0  0  0  0  0  0  0  0
   40.7688   36.2322   84.0191 C   0  0  0  0  0  0  0  0  0  0  0  0
   44.7978   38.4078   83.3011 C   0  0  0  0  0  0  0  0  0  0  0  0
   44.5945   39.3346   84.5436 O   0  0  0  0  0  0  0  0  0  0  0  0
  5  2  1  0
  7  3  1  0
  9  8  2  0
 10  4  1  0
 11  7  1  0
 13  1  2  0
 13  4  1  0
 14  9  1  0
 15  1  1  0
 16  9  1  0
 17  3  1  0
 17  6  1  0
 17 14  2  3
 18  5  1  0
 18 13  1  0
 20 10  1  0
 20 12  1  0
 20 19  1  0
 21  6  1  0
 21 20  1  0
 22 18  1  0
 23  3  2  0
 24  2  1  0
 24 22  1  0
 26  4  2  0
 26 15  1  0
 27 23  2  0
 28 25  1  0
 28 27  1  0
M  RAD  2  12   2  19   2
M  END
>  <ID>  (1) 
conformer_0

$$$$
