
     RDKit          3D

 10 11  0  0  0  0  0  0  0  0999 V2000
  130.8052   51.6140   32.8248 C   0  0  0  0  0  0  0  0  0  0  0  0
  129.5122   51.3465   32.2505 C   0  0  0  0  0  0  0  0  0  0  0  0
  131.4031   52.7975   32.3345 C   0  0  0  0  0  0  0  0  0  0  0  0
  130.8265   53.6554   31.4385 C   0  0  0  0  0  0  0  0  0  0  0  0
  131.4926   54.8504   31.1038 C   0  0  0  0  0  0  0  0  0  0  0  0
  132.6349   53.2204   32.8308 C   0  0  0  0  0  0  0  0  0  0  0  0
  132.6085   54.9288   31.5117 C   0  0  0  0  0  0  0  0  0  0  0  0
  129.5702   52.9977   31.2650 C   0  0  0  0  0  0  0  0  0  0  0  0
  133.2647   54.1994   32.4691 C   0  0  0  0  0  0  0  0  0  0  0  0
  129.0460   51.9557   31.6057 C   0  0  0  0  0  0  0  0  0  0  0  0
  1  2  1  0
  1  3  2  0
  3  4  1  0
  4  5  1  0
  3  6  1  0
  5  7  2  0
  4  8  2  0
  6  9  2  0
  7  9  1  0
  2 10  2  0
  8 10  1  0
M  END
>  <ID>  (1) 
conformer_0

$$$$
