
     RDKit          3D

  9  9  0  0  0  0  0  0  0  0999 V2000
  130.8052   51.6140   32.8248 C   0  0  0  0  0  0  0  0  0  0  0  0
  129.8004   52.0764   31.8685 C   0  0  0  0  0  0  0  0  0  0  0  0
  129.9562   53.3689   31.2919 C   0  0  0  0  0  0  0  0  0  0  0  0
  128.4171   51.8601   32.1128 O   0  0  0  0  0  0  0  0  0  0  0  0
  131.4094   53.7787   31.5097 C   0  0  0  0  0  0  0  0  0  0  0  0
  131.8840   55.0191   31.6806 C   0  0  0  0  0  0  0  0  0  0  0  0
  131.7309   52.7694   32.7687 C   0  0  0  0  0  0  0  0  0  0  0  0
  132.9427   55.1034   32.6209 O   0  0  0  0  0  0  0  0  0  0  0  0
  132.3940   55.6726   30.5330 C   0  0  0  0  0  0  0  0  0  0  0  0
  1  2  1  0
  2  3  1  0
  2  4  1  0
  3  5  1  0
  5  6  1  0
  1  7  1  0
  5  7  1  0
  6  8  1  0
  6  9  1  0
M  END
>  <ID>  (1) 
conformer_0

$$$$
