
     RDKit          3D

 10 10  0  0  0  0  0  0  0  0999 V2000
  129.6758   53.2503   31.1763 C   0  0  0  0  0  0  0  0  0  0  0  0
  130.8546   53.8532   31.4887 C   0  0  0  0  0  0  0  0  0  0  0  0
  131.6565   53.2353   32.3463 C   0  0  0  0  0  0  0  0  0  0  0  0
  129.3648   51.9931   31.7122 C   0  0  0  0  0  0  0  0  0  0  0  0
  132.8891   53.8860   32.7657 C   0  0  0  0  0  0  0  0  0  0  0  0
  128.2260   51.3975   31.3901 F   0  0  0  0  0  0  0  0  0  0  0  0
  130.3503   51.3970   32.6284 C   0  0  0  0  0  0  0  0  0  0  0  0
  133.1753   55.0774   32.3759 O   0  0  0  0  0  0  0  0  0  0  0  0
  133.8649   53.0955   33.1325 N   0  0  0  0  0  0  0  0  0  0  0  0
  131.4646   51.9829   32.8783 C   0  0  0  0  0  0  0  0  0  0  0  0
  1  2  1  0
  2  3  2  0
  1  4  2  0
  3  5  1  0
  4  6  1  0
  4  7  1  0
  5  8  2  0
  5  9  1  0
  3 10  1  0
  7 10  2  0
M  END
>  <ID>  (1) 
conformer_0

$$$$
