
     RDKit          3D

  8  8  0  0  0  0  0  0  0  0999 V2000
  131.9112   52.2103   32.9023 C   0  0  0  0  0  0  0  0  0  0  0  0
  130.7867   52.4777   32.1995 N   0  0  0  0  0  0  0  0  0  0  0  0
  130.4944   53.6060   31.4799 C   0  0  0  0  0  0  0  0  0  0  0  0
  129.2449   53.6068   30.9364 N   0  0  0  0  0  0  0  0  0  0  0  0
  132.9044   53.3069   32.8082 C   0  0  0  0  0  0  0  0  0  0  0  0
  131.5755   54.4968   31.2080 C   0  0  0  0  0  0  0  0  0  0  0  0
  128.8977   52.7136   30.1798 O   0  0  0  0  0  0  0  0  0  0  0  0
  132.7131   54.3240   31.9415 C   0  0  0  0  0  0  0  0  0  0  0  0
  1  2  1  0
  2  3  1  0
  3  4  2  3
  1  5  2  0
  3  6  1  0
  4  7  1  0
  5  8  1  0
  6  8  2  0
M  END
>  <ID>  (1) 
conformer_0

$$$$
