
     RDKit          3D

  9 10  0  0  0  0  0  0  0  0999 V2000
  131.2185   51.9503   32.8056 C   0  0  0  0  0  0  0  0  0  0  0  0
  131.9092   53.0151   32.5817 C   0  0  0  0  0  0  0  0  0  0  0  0
  131.4932   54.0110   31.7313 C   0  0  0  0  0  0  0  0  0  0  0  0
  129.8927   51.7928   32.1933 C   0  0  0  0  0  0  0  0  0  0  0  0
  130.2876   53.8770   31.0971 C   0  0  0  0  0  0  0  0  0  0  0  0
  129.4540   52.7917   31.3146 C   0  0  0  0  0  0  0  0  0  0  0  0
  133.0917   53.1541   33.2615 N   0  0  0  0  0  0  0  0  0  0  0  0
  132.4955   55.0515   31.7353 N   0  0  0  0  0  0  0  0  0  0  0  0
  133.3583   54.6585   32.4300 C   0  0  0  0  0  0  0  0  0  0  0  0
  1  2  2  0
  2  3  1  0
  1  4  1  0
  3  5  2  0
  4  6  2  0
  5  6  1  0
  2  7  1  0
  3  8  1  0
  7  9  1  0
  8  9  2  0
M  END
>  <ID>  (1) 
conformer_0

$$$$
