
     RDKit          3D

  9 10  0  0  0  0  0  0  0  0999 V2000
  130.4404   51.4860   32.7049 C   0  0  0  0  0  0  0  0  0  0  0  0
  131.3714   52.3037   32.5140 C   0  0  0  0  0  0  0  0  0  0  0  0
  129.2139   51.8940   32.0326 C   0  0  0  0  0  0  0  0  0  0  0  0
  131.0402   53.4961   31.8351 C   0  0  0  0  0  0  0  0  0  0  0  0
  131.8867   54.5069   31.6632 C   0  0  0  0  0  0  0  0  0  0  0  0
  133.1994   54.4337   32.1779 C   0  0  0  0  0  0  0  0  0  0  0  0
  132.6264   52.4886   33.0479 N   0  0  0  0  0  0  0  0  0  0  0  0
  129.6361   53.3127   31.4947 C   0  0  0  0  0  0  0  0  0  0  0  0
  133.5131   53.5851   32.8816 C   0  0  0  0  0  0  0  0  0  0  0  0
  1  2  1  0
  1  3  1  0
  2  4  1  0
  4  5  2  0
  5  6  1  0
  2  7  2  0
  3  8  1  0
  4  8  1  0
  6  9  2  0
  7  9  1  0
M  END
>  <ID>  (1) 
conformer_0

$$$$
