
     RDKit          3D

  9 10  0  0  0  0  0  0  0  0999 V2000
  130.2692   51.3642   32.6422 C   0  0  0  0  0  0  0  0  0  0  0  0
  131.2790   52.1664   32.4826 C   0  0  0  0  0  0  0  0  0  0  0  0
  132.4743   52.1064   33.1943 C   0  0  0  0  0  0  0  0  0  0  0  0
  131.0423   53.3582   31.6757 C   0  0  0  0  0  0  0  0  0  0  0  0
  129.0562   51.6676   31.8546 C   0  0  0  0  0  0  0  0  0  0  0  0
  132.1627   54.3286   31.7537 C   0  0  0  0  0  0  0  0  0  0  0  0
  133.0611   54.1690   32.5056 C   0  0  0  0  0  0  0  0  0  0  0  0
  129.5609   53.0840   31.3021 C   0  0  0  0  0  0  0  0  0  0  0  0
  133.3652   53.0790   33.2236 C   0  0  0  0  0  0  0  0  0  0  0  0
  1  2  2  0
  2  3  1  0
  2  4  1  0
  1  5  1  0
  4  6  1  0
  6  7  2  0
  4  8  2  0
  5  8  1  0
  3  9  2  0
  7  9  1  0
M  END
>  <ID>  (1) 
conformer_0

$$$$
