
     RDKit          3D

  7  7  0  0  0  0  0  0  0  0999 V2000
  132.2353   52.4686   33.0807 C   0  0  0  0  0  0  0  0  0  0  0  0
  132.6992   53.5760   32.7341 C   0  0  0  0  0  0  0  0  0  0  0  0
  133.9522   54.0542   33.3505 C   0  0  0  0  0  0  0  0  0  0  0  0
  130.7888   52.0945   32.5237 N   0  0  0  0  0  0  0  0  0  0  0  0
  130.4181   53.2296   31.7962 C   0  0  0  0  0  0  0  0  0  0  0  0
  129.0457   53.0225   31.1856 C   0  0  0  0  0  0  0  0  0  0  0  0
  131.8491   54.4414   31.7340 C   0  0  0  0  0  0  0  0  0  0  0  0
  1  2  2  0
  2  3  1  0
  1  4  1  0
  4  5  2  0
  5  6  1  0
  2  7  1  0
  5  7  1  0
M  END
>  <ID>  (1) 
conformer_0

$$$$
