
     RDKit          3D

  7  7  0  0  0  0  0  0  0  0999 V2000
  129.0660   51.4823   32.0197 C   0  0  0  0  0  0  0  0  0  0  0  0
  130.2509   52.2550   32.0282 C   0  0  0  0  0  0  0  0  0  0  0  0
  130.2109   53.4223   31.2925 C   0  0  0  0  0  0  0  0  0  0  0  0
  131.2224   52.0102   32.8963 C   0  0  0  0  0  0  0  0  0  0  0  0
  131.4817   54.1131   31.5187 C   0  0  0  0  0  0  0  0  0  0  0  0
  132.2868   53.1380   32.6773 S   0  0  0  0  0  0  0  0  0  0  0  0
  131.9592   55.3524   30.9465 C   0  0  0  0  0  0  0  0  0  0  0  0
  1  2  1  0
  2  3  1  0
  2  4  2  0
  3  5  2  0
  4  6  1  0
  5  6  1  0
  5  7  1  0
M  END
>  <ID>  (1) 
conformer_0

$$$$
