
     RDKit          3D

  9  9  0  0  0  0  0  0  0  0999 V2000
  131.9112   52.2103   32.9023 C   0  0  0  0  0  0  0  0  0  0  0  0
  132.4831   53.3606   32.7407 C   0  0  0  0  0  0  0  0  0  0  0  0
  130.6304   52.0412   32.3260 N   0  0  0  0  0  0  0  0  0  0  0  0
  133.7711   53.6023   33.4211 C   0  0  0  0  0  0  0  0  0  0  0  0
  134.5812   54.4946   32.7676 C   0  0  0  0  0  0  0  0  0  0  0  0
  132.0667   54.2777   31.8109 C   0  0  0  0  0  0  0  0  0  0  0  0
  129.7636   50.9180   32.5819 C   0  0  0  0  0  0  0  0  0  0  0  0
  134.0239   55.5314   31.9974 C   0  0  0  0  0  0  0  0  0  0  0  0
  132.7956   55.4452   31.5164 C   0  0  0  0  0  0  0  0  0  0  0  0
  1  2  1  0
  1  3  2  3
  2  4  1  0
  4  5  2  0
  2  6  2  0
  3  7  1  0
  5  8  1  0
  6  9  1  0
  8  9  2  0
M  END
>  <ID>  (1) 
conformer_0

$$$$
