
     RDKit          3D

  7  7  0  0  0  0  0  0  0  0999 V2000
  129.1739   51.6769   31.9031 C   0  0  0  0  0  0  0  0  0  0  0  0
  130.4049   52.3726   31.9859 N   0  0  0  0  0  0  0  0  0  0  0  0
  131.4915   51.9955   32.7183 C   0  0  0  0  0  0  0  0  0  0  0  0
  130.4307   53.7385   31.4886 C   0  0  0  0  0  0  0  0  0  0  0  0
  131.6424   54.4072   31.6723 C   0  0  0  0  0  0  0  0  0  0  0  0
  132.4471   53.1105   32.8627 C   0  0  0  0  0  0  0  0  0  0  0  0
  133.5456   53.2659   33.3162 O   0  0  0  0  0  0  0  0  0  0  0  0
  1  2  1  0
  2  3  1  0
  2  4  1  0
  4  5  2  0
  3  6  1  0
  5  6  1  0
  6  7  2  0
M  END
>  <ID>  (1) 
conformer_0

$$$$
