
     RDKit          3D

  9 10  0  0  0  0  0  0  0  0999 V2000
  130.6068   51.7570   32.6636 N   0  0  0  0  0  0  0  0  0  0  0  0
  131.5309   52.5282   32.3836 C   0  0  0  0  0  0  0  0  0  0  0  0
  131.1800   53.6596   31.5126 C   0  0  0  0  0  0  0  0  0  0  0  0
  132.7424   52.6852   33.1232 C   0  0  0  0  0  0  0  0  0  0  0  0
  129.3939   51.7069   32.0290 C   0  0  0  0  0  0  0  0  0  0  0  0
  129.0760   52.7558   31.0989 C   0  0  0  0  0  0  0  0  0  0  0  0
  133.4745   53.6799   32.8666 C   0  0  0  0  0  0  0  0  0  0  0  0
  132.6794   54.6198   31.7281 S   0  0  0  0  0  0  0  0  0  0  0  0
  130.0148   53.6764   30.9281 C   0  0  0  0  0  0  0  0  0  0  0  0
  1  2  1  0
  2  3  2  0
  2  4  1  0
  1  5  2  0
  5  6  1  0
  4  7  2  0
  3  8  1  0
  7  8  1  0
  3  9  1  0
  6  9  2  0
M  END
>  <ID>  (1) 
conformer_0

$$$$
