
     RDKit          3D

  9 10  0  0  0  0  0  0  0  0999 V2000
  131.2185   51.9503   32.8056 C   0  0  0  0  0  0  0  0  0  0  0  0
  131.9092   53.0151   32.5817 C   0  0  0  0  0  0  0  0  0  0  0  0
  133.1339   53.2515   33.2191 N   0  0  0  0  0  0  0  0  0  0  0  0
  129.8346   51.9350   32.0624 C   0  0  0  0  0  0  0  0  0  0  0  0
  129.6393   53.0360   31.2781 C   0  0  0  0  0  0  0  0  0  0  0  0
  131.6183   54.0767   31.7353 C   0  0  0  0  0  0  0  0  0  0  0  0
  132.6581   54.9878   31.7095 N   0  0  0  0  0  0  0  0  0  0  0  0
  133.6882   54.2957   32.7934 C   0  0  0  0  0  0  0  0  0  0  0  0
  130.4979   54.0938   31.0823 C   0  0  0  0  0  0  0  0  0  0  0  0
  1  2  2  0
  2  3  1  0
  1  4  1  0
  4  5  2  0
  2  6  1  0
  6  7  1  0
  3  8  2  0
  7  8  2  0
  5  9  1  0
  6  9  2  0
M  END
>  <ID>  (1) 
conformer_0

$$$$
