
     RDKit          3D

  7  7  0  0  0  0  0  0  0  0999 V2000
  132.2353   52.4686   33.0807 C   0  0  0  0  0  0  0  0  0  0  0  0
  131.1935   51.6947   32.9154 N   0  0  0  0  0  0  0  0  0  0  0  0
  132.1291   53.6875   32.2430 C   0  0  0  0  0  0  0  0  0  0  0  0
  130.8400   53.5097   31.6256 N   0  0  0  0  0  0  0  0  0  0  0  0
  130.2282   52.3895   31.9643 C   0  0  0  0  0  0  0  0  0  0  0  0
  132.8785   54.8771   32.1571 C   0  0  0  0  0  0  0  0  0  0  0  0
  129.0495   51.8851   31.6091 C   0  0  0  0  0  0  0  0  0  0  0  0
  1  2  2  0
  1  3  1  0
  3  4  2  0
  2  5  1  0
  4  5  1  0
  3  6  1  0
  5  7  1  0
M  END
>  <ID>  (1) 
conformer_0

$$$$
