
     RDKit          3D

  9 10  0  0  0  0  0  0  0  0999 V2000
  132.2353   52.4686   33.0807 C   0  0  0  0  0  0  0  0  0  0  0  0
  131.0554   52.5578   32.2949 C   0  0  0  0  0  0  0  0  0  0  0  0
  130.7641   53.7269   31.6234 C   0  0  0  0  0  0  0  0  0  0  0  0
  130.0569   51.5244   32.3655 C   0  0  0  0  0  0  0  0  0  0  0  0
  132.9715   53.6275   32.9041 C   0  0  0  0  0  0  0  0  0  0  0  0
  129.4647   53.6627   30.8845 C   0  0  0  0  0  0  0  0  0  0  0  0
  128.6398   52.6869   30.9763 C   0  0  0  0  0  0  0  0  0  0  0  0
  131.8640   54.4522   31.7469 C   0  0  0  0  0  0  0  0  0  0  0  0
  128.8873   51.5557   31.7265 C   0  0  0  0  0  0  0  0  0  0  0  0
  1  2  1  0
  2  3  2  0
  2  4  1  0
  1  5  2  0
  3  6  1  0
  6  7  2  0
  3  8  1  0
  5  8  1  0
  4  9  2  0
  7  9  1  0
M  END
>  <ID>  (1) 
conformer_0

$$$$
