
     RDKit          3D

  7  7  0  0  0  0  0  0  0  0999 V2000
  132.2374   52.6827   32.8896 C   0  0  0  0  0  0  0  0  0  0  0  0
  132.5674   53.7647   32.4630 C   0  0  0  0  0  0  0  0  0  0  0  0
  131.6302   54.4904   31.7053 C   0  0  0  0  0  0  0  0  0  0  0  0
  130.6052   53.5323   31.4585 C   0  0  0  0  0  0  0  0  0  0  0  0
  130.8327   52.3840   32.1833 N   0  0  0  0  0  0  0  0  0  0  0  0
  133.8726   54.4358   32.9944 C   0  0  0  0  0  0  0  0  0  0  0  0
  129.9059   51.3792   32.3222 C   0  0  0  0  0  0  0  0  0  0  0  0
  1  2  2  0
  2  3  1  0
  3  4  2  0
  1  5  1  0
  4  5  1  0
  2  6  1  0
  5  7  1  0
M  END
>  <ID>  (1) 
conformer_0

$$$$
