
     RDKit          3D

 10 11  0  0  0  0  0  0  0  0999 V2000
  131.2185   51.9503   32.8056 C   0  0  0  0  0  0  0  0  0  0  0  0
  130.1451   52.2519   31.9757 C   0  0  0  0  0  0  0  0  0  0  0  0
  129.1632   51.3686   31.8558 C   0  0  0  0  0  0  0  0  0  0  0  0
  132.2649   52.9265   32.9150 C   0  0  0  0  0  0  0  0  0  0  0  0
  133.3401   52.7851   33.7417 N   0  0  0  0  0  0  0  0  0  0  0  0
  130.1562   53.4281   31.1958 C   0  0  0  0  0  0  0  0  0  0  0  0
  132.2497   54.0739   32.1531 C   0  0  0  0  0  0  0  0  0  0  0  0
  133.3243   54.9187   32.3597 N   0  0  0  0  0  0  0  0  0  0  0  0
  133.9897   54.0109   33.5196 C   0  0  0  0  0  0  0  0  0  0  0  0
  131.2372   54.3463   31.3428 N   0  0  0  0  0  0  0  0  0  0  0  0
  1  2  1  0
  2  3  1  0
  1  4  2  0
  4  5  1  0
  2  6  2  0
  4  7  1  0
  7  8  1  0
  5  9  1  0
  8  9  1  0
  6 10  1  0
  7 10  2  0
M  END
>  <ID>  (1) 
conformer_0

$$$$
