
     RDKit          3D

  9  9  0  0  0  0  0  0  0  0999 V2000
  131.2185   51.9503   32.8056 C   0  0  0  0  0  0  0  0  0  0  0  0
  131.9092   53.0151   32.5817 C   0  0  0  0  0  0  0  0  0  0  0  0
  129.8252   52.0175   32.2092 N   0  0  0  0  0  0  0  0  0  0  0  0
  133.1620   53.2840   33.1767 C   0  0  0  0  0  0  0  0  0  0  0  0
  129.8556   53.1512   31.3948 C   0  0  0  0  0  0  0  0  0  0  0  0
  133.6366   52.3909   33.8374 O   0  0  0  0  0  0  0  0  0  0  0  0
  131.2611   53.8612   31.6015 C   0  0  0  0  0  0  0  0  0  0  0  0
  133.6012   54.5179   33.1704 N   0  0  0  0  0  0  0  0  0  0  0  0
  131.5933   54.8940   31.1083 O   0  0  0  0  0  0  0  0  0  0  0  0
  1  2  2  0
  1  3  1  0
  2  4  1  0
  3  5  2  0
  4  6  2  0
  2  7  1  0
  5  7  1  0
  4  8  1  0
  7  9  2  0
M  END
>  <ID>  (1) 
conformer_0

$$$$
