
     RDKit          3D

  5  5  0  0  0  0  0  0  0  0999 V2000
  129.4814   51.2369   32.3575 C   0  0  0  0  0  0  0  0  0  0  0  0
  130.8466   51.4706   32.5886 C   0  0  0  0  0  0  0  0  0  0  0  0
  129.2510   52.4012   31.6527 C   0  0  0  0  0  0  0  0  0  0  0  0
  130.2404   53.2392   31.7925 N   0  0  0  0  0  0  0  0  0  0  0  0
  131.1194   52.7477   32.3839 N   0  0  0  0  0  0  0  0  0  0  0  0
  1  2  1  0
  1  3  1  0
  3  4  1  0
  2  5  1  0
  4  5  2  0
M  END
>  <ID>  (1) 
conformer_0

$$$$
