
     RDKit          3D

  9 10  0  0  0  0  0  0  0  0999 V2000
  129.6758   53.2503   31.1763 C   0  0  0  0  0  0  0  0  0  0  0  0
  130.8546   53.8532   31.4887 C   0  0  0  0  0  0  0  0  0  0  0  0
  131.2295   55.0006   30.9932 O   0  0  0  0  0  0  0  0  0  0  0  0
  129.3979   51.9352   31.7008 C   0  0  0  0  0  0  0  0  0  0  0  0
  130.4750   51.4325   32.6071 C   0  0  0  0  0  0  0  0  0  0  0  0
  131.8793   53.4305   32.2607 C   0  0  0  0  0  0  0  0  0  0  0  0
  132.5178   55.2635   31.1271 C   0  0  0  0  0  0  0  0  0  0  0  0
  131.5809   52.1086   32.9056 C   0  0  0  0  0  0  0  0  0  0  0  0
  132.9866   54.2593   32.3663 C   0  0  0  0  0  0  0  0  0  0  0  0
  1  2  1  0
  2  3  1  0
  1  4  2  0
  4  5  1  0
  2  6  2  0
  3  7  1  0
  5  8  2  0
  6  8  1  0
  6  9  1  0
  7  9  1  0
M  END
>  <ID>  (1) 
conformer_0

$$$$
