
     RDKit          3D

  8  8  0  0  0  0  0  0  0  0999 V2000
  131.1800   51.9019   32.7145 C   0  0  0  0  0  0  0  0  0  0  0  0
  131.8672   52.9354   32.5385 C   0  0  0  0  0  0  0  0  0  0  0  0
  133.0683   53.1811   33.2264 N   0  0  0  0  0  0  0  0  0  0  0  0
  131.4212   53.9958   31.7035 N   0  0  0  0  0  0  0  0  0  0  0  0
  129.8813   52.0603   31.9885 C   0  0  0  0  0  0  0  0  0  0  0  0
  129.5864   53.2722   31.1503 C   0  0  0  0  0  0  0  0  0  0  0  0
  130.3367   53.9610   31.1561 C   0  0  0  0  0  0  0  0  0  0  0  0
  128.7927   50.8395   32.1057 C   0  0  0  0  0  0  0  0  0  0  0  0
  1  2  1  0
  2  3  1  0
  2  4  2  0
  1  5  2  0
  5  6  1  0
  4  7  1  0
  6  7  2  0
  5  8  1  0
M  END
>  <ID>  (1) 
conformer_0

$$$$
