
     RDKit          3D

  7  7  0  0  0  0  0  0  0  0999 V2000
  129.6758   53.2503   31.1763 C   0  0  0  0  0  0  0  0  0  0  0  0
  130.2488   52.2141   31.9509 N   0  0  0  0  0  0  0  0  0  0  0  0
  129.4190   51.0540   32.1064 O   0  0  0  0  0  0  0  0  0  0  0  0
  131.3246   52.1466   32.7663 C   0  0  0  0  0  0  0  0  0  0  0  0
  130.8568   54.1504   31.2762 C   0  0  0  0  0  0  0  0  0  0  0  0
  132.2024   53.1674   32.7022 C   0  0  0  0  0  0  0  0  0  0  0  0
  131.8736   54.2753   31.9423 N   0  0  0  0  0  0  0  0  0  0  0  0
  1  2  1  0
  2  3  1  0
  2  4  1  0
  1  5  2  0
  4  6  1  0
  5  7  1  0
  6  7  2  0
M  END
>  <ID>  (1) 
conformer_0

$$$$
