
     RDKit          3D

  9  9  0  0  0  0  0  0  0  0999 V2000
  131.9112   52.2103   32.9023 C   0  0  0  0  0  0  0  0  0  0  0  0
  132.4831   53.3606   32.7407 C   0  0  0  0  0  0  0  0  0  0  0  0
  130.6470   52.0355   32.3473 C   0  0  0  0  0  0  0  0  0  0  0  0
  131.8615   54.2774   31.9212 C   0  0  0  0  0  0  0  0  0  0  0  0
  130.0391   52.9213   31.7639 C   0  0  0  0  0  0  0  0  0  0  0  0
  130.7703   54.1300   31.4113 C   0  0  0  0  0  0  0  0  0  0  0  0
  133.7527   53.5911   33.3614 N   0  0  0  0  0  0  0  0  0  0  0  0
  132.6664   55.4926   31.6588 N   0  0  0  0  0  0  0  0  0  0  0  0
  129.8844   50.7738   32.5745 C   0  0  0  0  0  0  0  0  0  0  0  0
  1  2  2  0
  1  3  1  0
  2  4  1  0
  3  5  2  0
  4  6  2  0
  5  6  1  0
  2  7  1  0
  4  8  1  0
  3  9  1  0
M  END
>  <ID>  (1) 
conformer_0

$$$$
