
     RDKit          3D

 10 11  0  0  0  0  0  0  0  0999 V2000
  131.2185   51.9503   32.8056 C   0  0  0  0  0  0  0  0  0  0  0  0
  131.9092   53.0151   32.5817 C   0  0  0  0  0  0  0  0  0  0  0  0
  131.4932   54.0110   31.7313 C   0  0  0  0  0  0  0  0  0  0  0  0
  129.8927   51.7928   32.1933 C   0  0  0  0  0  0  0  0  0  0  0  0
  133.0861   53.1843   33.3447 N   0  0  0  0  0  0  0  0  0  0  0  0
  129.3504   52.6573   31.4294 C   0  0  0  0  0  0  0  0  0  0  0  0
  130.1779   53.8290   31.1664 C   0  0  0  0  0  0  0  0  0  0  0  0
  132.3264   55.0808   31.4782 C   0  0  0  0  0  0  0  0  0  0  0  0
  133.5507   55.1471   32.1917 C   0  0  0  0  0  0  0  0  0  0  0  0
  133.8997   54.1551   33.1281 C   0  0  0  0  0  0  0  0  0  0  0  0
  1  2  2  0
  2  3  1  0
  1  4  1  0
  2  5  1  0
  4  6  2  0
  3  7  2  0
  6  7  1  0
  3  8  1  0
  8  9  2  0
  5 10  2  0
  9 10  1  0
M  END
>  <ID>  (1) 
conformer_0

$$$$
