
     RDKit          3D

  9 10  0  0  0  0  0  0  0  0999 V2000
  130.6068   51.7570   32.6636 N   0  0  0  0  0  0  0  0  0  0  0  0
  131.5309   52.5282   32.3836 C   0  0  0  0  0  0  0  0  0  0  0  0
  131.1992   53.6588   31.5060 N   0  0  0  0  0  0  0  0  0  0  0  0
  132.8438   52.6040   32.8621 C   0  0  0  0  0  0  0  0  0  0  0  0
  132.0656   54.6366   31.3560 C   0  0  0  0  0  0  0  0  0  0  0  0
  129.7882   53.7320   31.3171 C   0  0  0  0  0  0  0  0  0  0  0  0
  133.2722   54.2682   32.1388 C   0  0  0  0  0  0  0  0  0  0  0  0
  129.2087   52.4942   31.5974 C   0  0  0  0  0  0  0  0  0  0  0  0
  129.4965   51.5499   32.2364 C   0  0  0  0  0  0  0  0  0  0  0  0
  1  2  2  0
  2  3  1  0
  2  4  1  0
  3  5  1  0
  3  6  1  0
  4  7  1  0
  5  7  1  0
  6  8  1  0
  1  9  1  0
  8  9  2  0
M  END
>  <ID>  (1) 
conformer_0

$$$$
