
     RDKit          3D

  7  6  0  0  0  0  0  0  0  0999 V2000
  132.2353   52.4686   33.0807 C   0  0  0  0  0  0  0  0  0  0  0  0
  132.6992   53.5760   32.7341 C   0  0  0  0  0  0  0  0  0  0  0  0
  133.9522   54.0542   33.3505 C   0  0  0  0  0  0  0  0  0  0  0  0
  130.7888   52.0945   32.5237 N   0  0  0  0  0  0  0  0  0  0  0  0
  130.1361   50.9733   32.7219 C   0  0  0  0  0  0  0  0  0  0  0  0
  131.9353   54.5729   32.0085 C   0  0  0  0  0  0  0  0  0  0  0  0
  128.8669   50.8646   32.1727 C   0  0  0  0  0  0  0  0  0  0  0  0
  1  2  2  3
  2  3  1  0
  1  4  1  0
  4  5  2  3
  2  6  1  0
  5  7  1  0
M  END
>  <ID>  (1) 
conformer_0

$$$$
