
     RDKit          3D

 10 11  0  0  0  0  0  0  0  0999 V2000
  131.5559   53.4540   31.9630 C   0  0  0  0  0  0  0  0  0  0  0  0
  132.0789   52.7322   32.6885 C   0  0  0  0  0  0  0  0  0  0  0  0
  131.2536   51.5849   33.0492 N   0  0  0  0  0  0  0  0  0  0  0  0
  130.2224   52.9326   31.6126 N   0  0  0  0  0  0  0  0  0  0  0  0
  129.1519   53.4669   30.8322 C   0  0  0  0  0  0  0  0  0  0  0  0
  130.1283   51.7684   32.3494 C   0  0  0  0  0  0  0  0  0  0  0  0
  133.3785   53.0842   33.2049 C   0  0  0  0  0  0  0  0  0  0  0  0
  132.0165   54.6701   31.4476 C   0  0  0  0  0  0  0  0  0  0  0  0
  133.9355   54.1785   32.7872 C   0  0  0  0  0  0  0  0  0  0  0  0
  133.2822   55.0366   31.8813 C   0  0  0  0  0  0  0  0  0  0  0  0
  1  2  2  0
  2  3  1  0
  1  4  1  0
  4  5  1  0
  3  6  2  0
  4  6  1  0
  2  7  1  0
  1  8  1  0
  7  9  2  0
  8 10  2  0
  9 10  1  0
M  END
>  <ID>  (1) 
conformer_0

$$$$
