
     RDKit          3D

  9 10  0  0  0  0  0  0  0  0999 V2000
  130.2804   51.3910   32.7254 N   0  0  0  0  0  0  0  0  0  0  0  0
  129.2042   51.4434   32.0163 C   0  0  0  0  0  0  0  0  0  0  0  0
  131.2497   52.1903   32.5715 C   0  0  0  0  0  0  0  0  0  0  0  0
  130.7798   53.2696   31.7143 C   0  0  0  0  0  0  0  0  0  0  0  0
  132.3457   52.3792   33.2336 N   0  0  0  0  0  0  0  0  0  0  0  0
  133.1264   53.4609   33.0584 C   0  0  0  0  0  0  0  0  0  0  0  0
  129.5048   52.9677   31.1535 N   0  0  0  0  0  0  0  0  0  0  0  0
  131.5414   54.3402   31.4292 C   0  0  0  0  0  0  0  0  0  0  0  0
  132.7505   54.4463   32.1159 C   0  0  0  0  0  0  0  0  0  0  0  0
  1  2  2  0
  1  3  1  0
  3  4  1  0
  3  5  2  0
  5  6  1  0
  2  7  1  0
  4  7  2  0
  4  8  1  0
  6  9  2  0
  8  9  2  0
M  END
>  <ID>  (1) 
conformer_0

$$$$
