
     RDKit          3D

  9  9  0  0  0  0  0  0  0  0999 V2000
  130.5349   52.1628   32.3334 C   0  0  0  0  0  0  0  0  0  0  0  0
  129.6078   52.4400   31.5798 C   0  0  0  0  0  0  0  0  0  0  0  0
  130.6909   51.1627   33.2280 O   0  0  0  0  0  0  0  0  0  0  0  0
  131.6897   53.0590   32.2998 C   0  0  0  0  0  0  0  0  0  0  0  0
  129.6303   53.6659   30.8127 C   0  0  0  0  0  0  0  0  0  0  0  0
  131.5663   54.0643   31.5905 C   0  0  0  0  0  0  0  0  0  0  0  0
  130.6128   54.4413   30.8278 N   0  0  0  0  0  0  0  0  0  0  0  0
  132.8179   54.9209   31.7274 N   0  0  0  0  0  0  0  0  0  0  0  0
  132.6909   52.5273   33.2167 N   0  0  0  0  0  0  0  0  0  0  0  0
  1  2  2  0
  1  3  1  0
  1  4  1  0
  2  5  1  0
  4  6  2  0
  5  7  2  0
  6  7  1  0
  6  8  1  0
  4  9  1  0
M  END
>  <ID>  (1) 
conformer_0

$$$$
