
     RDKit          3D

  9 10  0  0  0  0  0  0  0  0999 V2000
  130.8052   51.6140   32.8248 N   0  0  0  0  0  0  0  0  0  0  0  0
  131.6009   52.4759   32.4939 C   0  0  0  0  0  0  0  0  0  0  0  0
  131.3496   53.5582   31.6917 C   0  0  0  0  0  0  0  0  0  0  0  0
  129.9596   53.1370   31.2931 C   0  0  0  0  0  0  0  0  0  0  0  0
  132.0906   54.6237   31.3495 C   0  0  0  0  0  0  0  0  0  0  0  0
  133.1788   54.7579   32.0847 C   0  0  0  0  0  0  0  0  0  0  0  0
  129.4608   51.9594   31.9420 C   0  0  0  0  0  0  0  0  0  0  0  0
  133.4807   53.5564   33.0562 C   0  0  0  0  0  0  0  0  0  0  0  0
  132.7917   52.6036   33.2541 C   0  0  0  0  0  0  0  0  0  0  0  0
  1  2  2  0
  2  3  1  0
  3  4  2  0
  3  5  1  0
  5  6  2  0
  1  7  1  0
  4  7  1  0
  6  8  1  0
  2  9  1  0
  8  9  2  0
M  END
>  <ID>  (1) 
conformer_0

$$$$
