
     RDKit          3D

 10 11  0  0  0  0  0  0  0  0999 V2000
  129.6758   53.2503   31.1763 C   0  0  0  0  0  0  0  0  0  0  0  0
  129.1358   52.0548   31.5066 C   0  0  0  0  0  0  0  0  0  0  0  0
  130.9662   53.5146   31.7413 C   0  0  0  0  0  0  0  0  0  0  0  0
  129.8835   51.2630   32.3948 C   0  0  0  0  0  0  0  0  0  0  0  0
  131.6694   54.7244   31.5157 O   0  0  0  0  0  0  0  0  0  0  0  0
  131.7734   52.7457   32.5883 C   0  0  0  0  0  0  0  0  0  0  0  0
  129.2586   49.9676   32.6946 O   0  0  0  0  0  0  0  0  0  0  0  0
  132.9371   53.1152   32.9977 O   0  0  0  0  0  0  0  0  0  0  0  0
  131.1871   51.4451   32.9566 C   0  0  0  0  0  0  0  0  0  0  0  0
  133.0236   54.4600   32.3953 C   0  0  0  0  0  0  0  0  0  0  0  0
  1  2  1  0
  1  3  2  0
  2  4  2  0
  3  5  1  0
  3  6  1  0
  4  7  1  0
  6  8  1  0
  4  9  1  0
  6  9  2  0
  5 10  1  0
  8 10  1  0
M  END
>  <ID>  (1) 
conformer_0

$$$$
