
     RDKit          3D

  9  9  0  0  0  0  0  0  0  0999 V2000
  130.6068   51.7570   32.6636 N   0  0  0  0  0  0  0  0  0  0  0  0
  130.2517   52.5940   31.7615 C   0  0  0  0  0  0  0  0  0  0  0  0
  131.0982   53.7529   31.5247 C   0  0  0  0  0  0  0  0  0  0  0  0
  130.9771   54.6684   30.6407 O   0  0  0  0  0  0  0  0  0  0  0  0
  132.1378   53.8456   32.4639 N   0  0  0  0  0  0  0  0  0  0  0  0
  129.1624   52.3754   31.0644 N   0  0  0  0  0  0  0  0  0  0  0  0
  128.5225   51.2575   31.4460 C   0  0  0  0  0  0  0  0  0  0  0  0
  129.6871   50.6853   32.5670 C   0  0  0  0  0  0  0  0  0  0  0  0
  133.1199   54.7919   32.3789 C   0  0  0  0  0  0  0  0  0  0  0  0
  1  2  1  0
  2  3  1  0
  3  4  2  0
  3  5  1  0
  2  6  2  0
  6  7  1  0
  1  8  2  0
  7  8  1  0
  5  9  1  0
M  END
>  <ID>  (1) 
conformer_0

$$$$
