
     RDKit          3D

  8  8  0  0  0  0  0  0  0  0999 V2000
  131.3232   52.1436   32.8013 C   0  0  0  0  0  0  0  0  0  0  0  0
  130.2272   52.2518   32.0269 C   0  0  0  0  0  0  0  0  0  0  0  0
  129.2976   51.3744   32.0142 C   0  0  0  0  0  0  0  0  0  0  0  0
  132.2468   53.1969   32.8187 C   0  0  0  0  0  0  0  0  0  0  0  0
  131.7386   54.2244   31.8786 C   0  0  0  0  0  0  0  0  0  0  0  0
  130.2885   53.5284   31.3533 N   0  0  0  0  0  0  0  0  0  0  0  0
  132.1131   55.2441   31.4782 O   0  0  0  0  0  0  0  0  0  0  0  0
  133.2008   55.7879   32.1151 C   0  0  0  0  0  0  0  0  0  0  0  0
  1  2  1  0
  2  3  1  0
  1  4  2  0
  4  5  1  0
  2  6  2  0
  5  6  1  0
  5  7  1  0
  7  8  1  0
M  END
>  <ID>  (1) 
conformer_0

$$$$
