
     RDKit          3D

 10 10  0  0  0  0  0  0  0  0999 V2000
  130.2804   51.3910   32.7254 N   0  0  0  0  0  0  0  0  0  0  0  0
  130.4671   52.4423   31.9934 C   0  0  0  0  0  0  0  0  0  0  0  0
  131.6284   53.1872   32.1088 C   0  0  0  0  0  0  0  0  0  0  0  0
  129.3734   52.9481   31.3308 O   0  0  0  0  0  0  0  0  0  0  0  0
  131.8096   54.5045   31.6296 C   0  0  0  0  0  0  0  0  0  0  0  0
  132.7204   52.5351   32.7421 C   0  0  0  0  0  0  0  0  0  0  0  0
  133.8699   53.2362   32.9654 C   0  0  0  0  0  0  0  0  0  0  0  0
  134.9428   52.6026   33.6305 O   0  0  0  0  0  0  0  0  0  0  0  0
  133.0780   55.1206   31.8420 C   0  0  0  0  0  0  0  0  0  0  0  0
  134.0878   54.5664   32.4604 C   0  0  0  0  0  0  0  0  0  0  0  0
  1  2  1  0
  2  3  1  0
  2  4  2  0
  3  5  2  0
  3  6  1  0
  6  7  2  0
  7  8  1  0
  5  9  1  0
  7 10  1  0
  9 10  2  0
M  END
>  <ID>  (1) 
conformer_0

$$$$
