
     RDKit          3D

  9 10  0  0  0  0  0  0  0  0999 V2000
  130.4404   51.4860   32.7049 C   0  0  0  0  0  0  0  0  0  0  0  0
  131.3714   52.3037   32.5140 C   0  0  0  0  0  0  0  0  0  0  0  0
  129.2139   51.8940   32.0326 C   0  0  0  0  0  0  0  0  0  0  0  0
  131.0402   53.4961   31.8351 C   0  0  0  0  0  0  0  0  0  0  0  0
  131.8867   54.5069   31.6632 N   0  0  0  0  0  0  0  0  0  0  0  0
  132.4401   52.4980   33.1870 N   0  0  0  0  0  0  0  0  0  0  0  0
  129.7138   53.1785   31.3834 C   0  0  0  0  0  0  0  0  0  0  0  0
  133.3254   53.5212   33.0324 C   0  0  0  0  0  0  0  0  0  0  0  0
  132.9740   54.5174   32.2898 C   0  0  0  0  0  0  0  0  0  0  0  0
  1  2  1  0
  1  3  1  0
  2  4  1  0
  4  5  2  0
  2  6  2  0
  3  7  2  0
  4  7  1  0
  6  8  1  0
  5  9  1  0
  8  9  2  0
M  END
>  <ID>  (1) 
conformer_0

$$$$
