
     RDKit          3D

  8  9  0  0  0  0  0  0  0  0999 V2000
  128.8102   52.2654   31.3333 C   0  0  0  0  0  0  0  0  0  0  0  0
  129.6555   51.3886   32.0818 C   0  0  0  0  0  0  0  0  0  0  0  0
  130.7439   52.2063   32.4365 N   0  0  0  0  0  0  0  0  0  0  0  0
  131.8812   51.8779   33.0375 C   0  0  0  0  0  0  0  0  0  0  0  0
  130.4056   53.6337   32.2351 C   0  0  0  0  0  0  0  0  0  0  0  0
  129.3365   53.5820   31.1237 C   0  0  0  0  0  0  0  0  0  0  0  0
  132.8172   53.0392   33.0288 C   0  0  0  0  0  0  0  0  0  0  0  0
  131.8418   53.9552   31.9370 C   0  0  0  0  0  0  0  0  0  0  0  0
  1  2  1  0
  2  3  1  0
  3  4  1  0
  3  5  1  0
  1  6  1  0
  5  6  1  0
  4  7  1  0
  5  8  1  0
  7  8  1  0
M  END
>  <ID>  (1) 
conformer_0

$$$$
