
     RDKit          3D

  9 10  0  0  0  0  0  0  0  0999 V2000
  130.4404   51.4860   32.7049 N   0  0  0  0  0  0  0  0  0  0  0  0
  129.2819   51.4955   31.9979 C   0  0  0  0  0  0  0  0  0  0  0  0
  129.1022   52.6239   31.2346 N   0  0  0  0  0  0  0  0  0  0  0  0
  129.9345   53.5033   31.1227 C   0  0  0  0  0  0  0  0  0  0  0  0
  131.4304   52.3513   32.6107 C   0  0  0  0  0  0  0  0  0  0  0  0
  131.2127   53.4557   31.9094 C   0  0  0  0  0  0  0  0  0  0  0  0
  132.2065   54.4861   31.8132 C   0  0  0  0  0  0  0  0  0  0  0  0
  132.6519   52.5189   33.2607 N   0  0  0  0  0  0  0  0  0  0  0  0
  133.1874   53.8121   32.8171 C   0  0  0  0  0  0  0  0  0  0  0  0
  1  2  1  0
  2  3  2  0
  3  4  1  0
  1  5  2  0
  4  6  2  0
  5  6  1  0
  6  7  1  0
  5  8  1  0
  7  9  2  0
  8  9  1  0
M  END
>  <ID>  (1) 
conformer_0

$$$$
