
     RDKit          3D

  9 10  0  0  0  0  0  0  0  0999 V2000
  130.4404   51.4860   32.7049 C   0  0  0  0  0  0  0  0  0  0  0  0
  131.3714   52.3037   32.5140 C   0  0  0  0  0  0  0  0  0  0  0  0
  129.2139   51.8940   32.0326 C   0  0  0  0  0  0  0  0  0  0  0  0
  131.0402   53.4961   31.8351 C   0  0  0  0  0  0  0  0  0  0  0  0
  131.8867   54.5069   31.6632 N   0  0  0  0  0  0  0  0  0  0  0  0
  129.6116   53.1019   31.3558 N   0  0  0  0  0  0  0  0  0  0  0  0
  132.6994   52.3419   33.1142 N   0  0  0  0  0  0  0  0  0  0  0  0
  133.3329   53.6213   32.7953 C   0  0  0  0  0  0  0  0  0  0  0  0
  132.9023   54.5985   32.0998 C   0  0  0  0  0  0  0  0  0  0  0  0
  1  2  1  0
  1  3  1  0
  2  4  1  0
  4  5  2  0
  3  6  2  0
  4  6  1  0
  2  7  2  0
  7  8  1  0
  5  9  1  0
  8  9  2  0
M  END
>  <ID>  (1) 
conformer_0

$$$$
