
     RDKit          3D

  5  4  0  0  0  0  0  0  0  0999 V2000
  128.8323   51.7513   31.6852 C   0  0  0  0  0  0  0  0  0  0  0  0
  129.7009   52.9664   31.3693 C   0  0  0  0  0  0  0  0  0  0  0  0
  130.9406   52.9466   32.0539 C   0  0  0  0  0  0  0  0  0  0  0  0
  131.4371   52.0111   32.5888 O   0  0  0  0  0  0  0  0  0  0  0  0
  131.6981   54.0700   31.9713 O   0  0  0  0  0  0  0  0  0  0  0  0
  1  2  1  0
  2  3  1  0
  3  4  1  0
  3  5  2  0
M  END
>  <ID>  (1) 
conformer_0

$$$$
