
     RDKit          3D

  9  9  0  0  0  0  0  0  0  0999 V2000
  131.9112   52.2103   32.9023 C   0  0  0  0  0  0  0  0  0  0  0  0
  132.4831   53.3606   32.7407 C   0  0  0  0  0  0  0  0  0  0  0  0
  130.6304   52.0412   32.3260 N   0  0  0  0  0  0  0  0  0  0  0  0
  132.1067   54.1751   31.9777 C   0  0  0  0  0  0  0  0  0  0  0  0
  130.2220   53.1690   31.6259 C   0  0  0  0  0  0  0  0  0  0  0  0
  130.9143   54.1855   31.4505 C   0  0  0  0  0  0  0  0  0  0  0  0
  133.7923   53.4007   33.4888 C   0  0  0  0  0  0  0  0  0  0  0  0
  134.5012   54.4450   33.4205 O   0  0  0  0  0  0  0  0  0  0  0  0
  134.2613   52.4940   34.1548 O   0  0  0  0  0  0  0  0  0  0  0  0
  1  2  1  0
  1  3  2  0
  2  4  2  0
  3  5  1  0
  4  6  1  0
  5  6  2  0
  2  7  1  0
  7  8  2  0
  7  9  1  0
M  END
>  <ID>  (1) 
conformer_0

$$$$
