
     RDKit          3D

  9  9  0  0  0  0  0  0  0  0999 V2000
  131.3232   52.1436   32.8013 N   0  0  0  0  0  0  0  0  0  0  0  0
  130.4207   52.4307   31.9377 C   0  0  0  0  0  0  0  0  0  0  0  0
  132.5081   52.9246   32.8591 C   0  0  0  0  0  0  0  0  0  0  0  0
  130.5141   53.6482   31.2485 C   0  0  0  0  0  0  0  0  0  0  0  0
  132.6029   54.0836   32.1390 C   0  0  0  0  0  0  0  0  0  0  0  0
  129.2287   51.6127   31.9136 C   0  0  0  0  0  0  0  0  0  0  0  0
  131.5896   54.3954   31.3117 N   0  0  0  0  0  0  0  0  0  0  0  0
  133.3548   52.6660   33.7232 O   0  0  0  0  0  0  0  0  0  0  0  0
  133.7737   54.9257   32.2161 C   0  0  0  0  0  0  0  0  0  0  0  0
  1  2  1  0
  1  3  1  0
  2  4  2  0
  3  5  1  0
  2  6  1  0
  4  7  1  0
  5  7  2  0
  3  8  2  0
  5  9  1  0
M  END
>  <ID>  (1) 
conformer_0

$$$$
