
     RDKit          3D

  9  9  0  0  0  0  0  0  0  0999 V2000
  130.8052   51.6140   32.8248 N   0  0  0  0  0  0  0  0  0  0  0  0
  131.6009   52.4759   32.4939 C   0  0  0  0  0  0  0  0  0  0  0  0
  132.9025   52.4954   33.0847 C   0  0  0  0  0  0  0  0  0  0  0  0
  131.2604   53.6562   31.7492 N   0  0  0  0  0  0  0  0  0  0  0  0
  129.9440   53.5630   31.2206 C   0  0  0  0  0  0  0  0  0  0  0  0
  129.5203   51.5191   32.2345 C   0  0  0  0  0  0  0  0  0  0  0  0
  129.1040   52.5878   31.4208 C   0  0  0  0  0  0  0  0  0  0  0  0
  133.4029   53.7882   33.5698 N   0  0  0  0  0  0  0  0  0  0  0  0
  134.0974   54.4191   32.9790 C   0  0  0  0  0  0  0  0  0  0  0  0
  1  2  1  0
  2  3  1  0
  2  4  2  0
  4  5  1  0
  1  6  2  0
  5  7  2  0
  6  7  1  0
  3  8  1  0
  8  9  1  0
M  END
>  <ID>  (1) 
conformer_0

$$$$
