
     RDKit          3D

  8  8  0  0  0  0  0  0  0  0999 V2000
  129.0660   51.4823   32.0197 C   0  0  0  0  0  0  0  0  0  0  0  0
  130.3335   51.2234   32.5656 C   0  0  0  0  0  0  0  0  0  0  0  0
  131.1592   52.0482   32.6980 N   0  0  0  0  0  0  0  0  0  0  0  0
  129.3941   52.8139   31.4559 C   0  0  0  0  0  0  0  0  0  0  0  0
  130.6322   53.1394   31.9514 N   0  0  0  0  0  0  0  0  0  0  0  0
  131.2723   54.3734   31.7388 C   0  0  0  0  0  0  0  0  0  0  0  0
  130.9836   55.0444   30.7273 O   0  0  0  0  0  0  0  0  0  0  0  0
  132.2193   54.7758   32.7578 C   0  0  0  0  0  0  0  0  0  0  0  0
  1  2  1  0
  2  3  2  0
  1  4  2  0
  3  5  1  0
  4  5  1  0
  5  6  1  0
  6  7  2  0
  6  8  1  0
M  END
>  <ID>  (1) 
conformer_0

$$$$
