
     RDKit          3D

  9  9  0  0  0  0  0  0  0  0999 V2000
  130.6068   51.7570   32.6636 N   0  0  0  0  0  0  0  0  0  0  0  0
  130.2517   52.5940   31.7615 C   0  0  0  0  0  0  0  0  0  0  0  0
  131.0982   53.7529   31.5247 N   0  0  0  0  0  0  0  0  0  0  0  0
  132.2947   53.7868   32.3741 C   0  0  0  0  0  0  0  0  0  0  0  0
  129.7472   50.5402   32.5473 C   0  0  0  0  0  0  0  0  0  0  0  0
  128.6308   50.5986   31.9232 C   0  0  0  0  0  0  0  0  0  0  0  0
  129.1540   52.6482   30.9410 N   0  0  0  0  0  0  0  0  0  0  0  0
  133.1488   54.7982   31.9399 C   0  0  0  0  0  0  0  0  0  0  0  0
  128.4332   51.4279   31.2358 C   0  0  0  0  0  0  0  0  0  0  0  0
  1  2  1  0
  2  3  1  0
  3  4  1  0
  1  5  2  0
  5  6  1  0
  2  7  2  0
  4  8  1  0
  6  9  2  0
  7  9  1  0
M  END
>  <ID>  (1) 
conformer_0

$$$$
