
     RDKit          3D

  9 10  0  0  0  0  0  0  0  0999 V2000
  130.8052   51.6140   32.8248 N   0  0  0  0  0  0  0  0  0  0  0  0
  131.6009   52.4759   32.4939 C   0  0  0  0  0  0  0  0  0  0  0  0
  131.3496   53.5582   31.6917 C   0  0  0  0  0  0  0  0  0  0  0  0
  129.9596   53.1370   31.2931 C   0  0  0  0  0  0  0  0  0  0  0  0
  132.0906   54.6237   31.3495 C   0  0  0  0  0  0  0  0  0  0  0  0
  129.6558   51.9772   31.9510 N   0  0  0  0  0  0  0  0  0  0  0  0
  133.3478   54.6588   31.8953 C   0  0  0  0  0  0  0  0  0  0  0  0
  132.7396   52.4618   33.0865 C   0  0  0  0  0  0  0  0  0  0  0  0
  133.7182   53.6259   32.8298 C   0  0  0  0  0  0  0  0  0  0  0  0
  1  2  2  0
  2  3  1  0
  3  4  2  0
  3  5  1  0
  1  6  1  0
  4  6  1  0
  5  7  2  0
  2  8  1  0
  7  9  1  0
  8  9  2  0
M  END
>  <ID>  (1) 
conformer_0

$$$$
