
     RDKit          3D

  7  7  0  0  0  0  0  0  0  0999 V2000
  131.6150   52.2113   32.8660 C   0  0  0  0  0  0  0  0  0  0  0  0
  132.2587   53.3187   32.6278 C   0  0  0  0  0  0  0  0  0  0  0  0
  130.3735   51.9773   32.2556 N   0  0  0  0  0  0  0  0  0  0  0  0
  130.1868   53.1490   31.3960 C   0  0  0  0  0  0  0  0  0  0  0  0
  131.2847   54.0065   31.6305 N   0  0  0  0  0  0  0  0  0  0  0  0
  133.2586   53.8487   33.1559 O   0  0  0  0  0  0  0  0  0  0  0  0
  129.1219   53.3353   30.7522 O   0  0  0  0  0  0  0  0  0  0  0  0
  1  2  1  0
  1  3  2  0
  3  4  1  0
  2  5  1  0
  4  5  1  0
  2  6  2  0
  4  7  2  0
M  END
>  <ID>  (1) 
conformer_0

$$$$
