
     RDKit          3D

  9  9  0  0  0  0  0  0  0  0999 V2000
  131.1800   51.9019   32.7145 C   0  0  0  0  0  0  0  0  0  0  0  0
  131.8672   52.9354   32.5385 C   0  0  0  0  0  0  0  0  0  0  0  0
  129.8612   51.8419   32.0869 C   0  0  0  0  0  0  0  0  0  0  0  0
  129.0185   50.7400   32.2921 C   0  0  0  0  0  0  0  0  0  0  0  0
  133.1118   53.1735   33.1490 N   0  0  0  0  0  0  0  0  0  0  0  0
  129.3551   52.9804   31.3102 C   0  0  0  0  0  0  0  0  0  0  0  0
  133.9309   53.7879   32.8357 C   0  0  0  0  0  0  0  0  0  0  0  0
  133.3344   54.6478   31.6724 C   0  0  0  0  0  0  0  0  0  0  0  0
  131.9239   53.9166   31.5619 C   0  0  0  0  0  0  0  0  0  0  0  0
  1  2  1  0
  1  3  2  3
  3  4  1  0
  2  5  1  0
  3  6  1  0
  5  7  2  0
  7  8  1  0
  2  9  2  0
  8  9  2  0
M  END
>  <ID>  (1) 
conformer_0

$$$$
