
     RDKit          3D

  8  9  0  0  0  0  0  0  0  0999 V2000
  128.8102   52.2654   31.3333 C   0  0  0  0  0  0  0  0  0  0  0  0
  129.6555   51.3886   32.0818 C   0  0  0  0  0  0  0  0  0  0  0  0
  130.7439   52.2063   32.4365 N   0  0  0  0  0  0  0  0  0  0  0  0
  129.4911   52.9529   30.6850 N   0  0  0  0  0  0  0  0  0  0  0  0
  130.6610   53.1983   31.4528 C   0  0  0  0  0  0  0  0  0  0  0  0
  131.6237   52.2013   33.2457 N   0  0  0  0  0  0  0  0  0  0  0  0
  132.4999   53.1834   32.8187 C   0  0  0  0  0  0  0  0  0  0  0  0
  131.7917   53.9051   31.7106 C   0  0  0  0  0  0  0  0  0  0  0  0
  1  2  1  0
  2  3  1  0
  1  4  1  0
  3  5  1  0
  4  5  2  0
  3  6  1  0
  6  7  2  0
  5  8  1  0
  7  8  1  0
M  END
>  <ID>  (1) 
conformer_0

$$$$
