
     RDKit          3D

  7  7  0  0  0  0  0  0  0  0999 V2000
  131.3232   52.1436   32.8013 N   0  0  0  0  0  0  0  0  0  0  0  0
  130.4207   52.4307   31.9377 C   0  0  0  0  0  0  0  0  0  0  0  0
  130.5613   53.6762   31.2251 C   0  0  0  0  0  0  0  0  0  0  0  0
  132.3444   53.0401   32.6333 C   0  0  0  0  0  0  0  0  0  0  0  0
  133.5335   53.1296   33.3800 C   0  0  0  0  0  0  0  0  0  0  0  0
  131.8431   54.0122   31.7418 N   0  0  0  0  0  0  0  0  0  0  0  0
  129.1351   51.5519   31.8157 C   0  0  0  0  0  0  0  0  0  0  0  0
  1  2  2  0
  2  3  1  0
  1  4  1  0
  4  5  1  0
  3  6  1  0
  4  6  2  0
  2  7  1  0
M  END
>  <ID>  (1) 
conformer_0

$$$$
