
     RDKit          3D

  9 10  0  0  0  0  0  0  0  0999 V2000
  130.4404   51.4860   32.7049 N   0  0  0  0  0  0  0  0  0  0  0  0
  131.3780   52.1954   32.4267 C   0  0  0  0  0  0  0  0  0  0  0  0
  132.6697   52.0852   33.1063 C   0  0  0  0  0  0  0  0  0  0  0  0
  129.2059   51.6384   31.9178 C   0  0  0  0  0  0  0  0  0  0  0  0
  129.0514   52.7384   31.1351 C   0  0  0  0  0  0  0  0  0  0  0  0
  133.2851   53.3094   33.3406 N   0  0  0  0  0  0  0  0  0  0  0  0
  130.0961   53.5972   30.9785 C   0  0  0  0  0  0  0  0  0  0  0  0
  131.2766   53.3763   31.6913 C   0  0  0  0  0  0  0  0  0  0  0  0
  132.4647   54.1974   31.9186 C   0  0  0  0  0  0  0  0  0  0  0  0
  1  2  2  0
  2  3  1  0
  1  4  1  0
  4  5  2  0
  3  6  1  0
  5  7  1  0
  2  8  1  0
  7  8  2  0
  6  9  2  0
  8  9  1  0
M  END
>  <ID>  (1) 
conformer_0

$$$$
