
     RDKit          3D

  9  9  0  0  0  0  0  0  0  0999 V2000
  130.4404   51.4860   32.7049 C   0  0  0  0  0  0  0  0  0  0  0  0
  131.3714   52.3037   32.5140 C   0  0  0  0  0  0  0  0  0  0  0  0
  129.1895   51.6952   31.9362 C   0  0  0  0  0  0  0  0  0  0  0  0
  131.0201   53.5035   31.7913 C   0  0  0  0  0  0  0  0  0  0  0  0
  132.1676   54.5228   31.8145 C   0  0  0  0  0  0  0  0  0  0  0  0
  132.2824   55.3952   31.0647 O   0  0  0  0  0  0  0  0  0  0  0  0
  133.2595   54.1426   32.5372 N   0  0  0  0  0  0  0  0  0  0  0  0
  129.9577   53.6887   31.1050 C   0  0  0  0  0  0  0  0  0  0  0  0
  128.9908   52.7453   31.1631 C   0  0  0  0  0  0  0  0  0  0  0  0
  1  2  2  0
  1  3  1  0
  2  4  1  0
  4  5  1  0
  5  6  2  0
  5  7  1  0
  4  8  2  0
  3  9  2  0
  8  9  1  0
M  END
>  <ID>  (1) 
conformer_0

$$$$
