
     RDKit          3D

  5  5  0  0  0  0  0  0  0  0999 V2000
  129.6354   51.5018   32.3893 C   0  0  0  0  0  0  0  0  0  0  0  0
  130.9702   51.6778   32.5803 C   0  0  0  0  0  0  0  0  0  0  0  0
  129.3495   52.4749   31.5969 C   0  0  0  0  0  0  0  0  0  0  0  0
  131.2934   52.9448   32.1531 N   0  0  0  0  0  0  0  0  0  0  0  0
  130.3165   53.4639   31.4856 N   0  0  0  0  0  0  0  0  0  0  0  0
  1  2  1  0
  1  3  2  0
  2  4  2  0
  3  5  1  0
  4  5  1  0
M  END
>  <ID>  (1) 
conformer_0

$$$$
