
     RDKit          3D

  7  7  0  0  0  0  0  0  0  0999 V2000
  130.8052   51.6140   32.8248 C   0  0  0  0  0  0  0  0  0  0  0  0
  129.8004   52.0764   31.8685 C   0  0  0  0  0  0  0  0  0  0  0  0
  131.6692   52.6942   32.7204 N   0  0  0  0  0  0  0  0  0  0  0  0
  132.9446   52.6601   33.3562 C   0  0  0  0  0  0  0  0  0  0  0  0
  129.9254   53.2841   31.5044 C   0  0  0  0  0  0  0  0  0  0  0  0
  130.9399   53.7809   32.3182 C   0  0  0  0  0  0  0  0  0  0  0  0
  133.8737   53.4991   32.8013 C   0  0  0  0  0  0  0  0  0  0  0  0
  1  2  1  0
  1  3  1  0
  3  4  1  0
  2  5  1  0
  3  6  1  0
  5  6  1  0
  4  7  1  0
M  END
>  <ID>  (1) 
conformer_0

$$$$
