
     RDKit          3D

  5  5  0  0  0  0  0  0  0  0999 V2000
  131.1800   51.9019   32.7145 C   0  0  0  0  0  0  0  0  0  0  0  0
  130.0965   52.2429   31.9110 C   0  0  0  0  0  0  0  0  0  0  0  0
  131.9573   53.0227   32.8000 C   0  0  0  0  0  0  0  0  0  0  0  0
  131.5537   54.0610   31.9928 C   0  0  0  0  0  0  0  0  0  0  0  0
  130.2420   53.5188   31.4258 C   0  0  0  0  0  0  0  0  0  0  0  0
  1  2  1  0
  1  3  1  0
  3  4  1  0
  2  5  1  0
  4  5  1  0
M  END
>  <ID>  (1) 
conformer_0

$$$$
