
     RDKit          3D

 10 10  0  0  0  0  0  0  0  0999 V2000
  129.2768   51.5185   32.2670 C   0  0  0  0  0  0  0  0  0  0  0  0
  130.3698   52.3869   31.9962 C   0  0  0  0  0  0  0  0  0  0  0  0
  131.5413   52.3847   32.6651 C   0  0  0  0  0  0  0  0  0  0  0  0
  132.5122   53.4434   32.5297 C   0  0  0  0  0  0  0  0  0  0  0  0
  130.0754   53.5143   31.1173 C   0  0  0  0  0  0  0  0  0  0  0  0
  131.1895   54.5348   31.0396 C   0  0  0  0  0  0  0  0  0  0  0  0
  133.7527   53.3853   33.3081 C   0  0  0  0  0  0  0  0  0  0  0  0
  133.9451   52.6244   34.1531 O   0  0  0  0  0  0  0  0  0  0  0  0
  134.5976   54.2883   32.9715 O   0  0  0  0  0  0  0  0  0  0  0  0
  132.2424   54.4648   31.6561 C   0  0  0  0  0  0  0  0  0  0  0  0
  1  2  1  0
  2  3  1  0
  3  4  2  0
  2  5  2  0
  5  6  1  0
  4  7  1  0
  7  8  1  0
  7  9  2  0
  4 10  1  0
  6 10  2  0
M  END
>  <ID>  (1) 
conformer_0

$$$$
