
     RDKit          3D

  8  8  0  0  0  0  0  0  0  0999 V2000
  129.6876   52.4124   31.8028 C   0  0  0  0  0  0  0  0  0  0  0  0
  130.7660   51.9467   32.3244 C   0  0  0  0  0  0  0  0  0  0  0  0
  128.5905   51.4553   31.4628 O   0  0  0  0  0  0  0  0  0  0  0  0
  129.9183   53.4219   31.0860 C   0  0  0  0  0  0  0  0  0  0  0  0
  131.7575   52.8586   32.3871 C   0  0  0  0  0  0  0  0  0  0  0  0
  131.2873   53.9583   31.5178 O   0  0  0  0  0  0  0  0  0  0  0  0
  132.9327   52.9933   33.1759 C   0  0  0  0  0  0  0  0  0  0  0  0
  133.7947   54.0242   32.8615 C   0  0  0  0  0  0  0  0  0  0  0  0
  1  2  1  0
  1  3  1  0
  1  4  2  0
  2  5  2  0
  4  6  1  0
  5  6  1  0
  5  7  1  0
  7  8  1  0
M  END
>  <ID>  (1) 
conformer_0

$$$$
