
     RDKit          3D

  9 10  0  0  0  0  0  0  0  0999 V2000
  131.5559   53.4540   31.9630 C   0  0  0  0  0  0  0  0  0  0  0  0
  130.5550   52.6576   31.8668 N   0  0  0  0  0  0  0  0  0  0  0  0
  129.4446   53.0866   31.1509 C   0  0  0  0  0  0  0  0  0  0  0  0
  130.5023   51.4760   32.5977 C   0  0  0  0  0  0  0  0  0  0  0  0
  131.6730   54.7010   31.3396 N   0  0  0  0  0  0  0  0  0  0  0  0
  131.6972   51.3984   33.2522 C   0  0  0  0  0  0  0  0  0  0  0  0
  132.4264   52.8732   32.8409 C   0  0  0  0  0  0  0  0  0  0  0  0
  133.0759   55.0014   31.8669 C   0  0  0  0  0  0  0  0  0  0  0  0
  133.6096   54.0030   32.8096 C   0  0  0  0  0  0  0  0  0  0  0  0
  1  2  1  0
  2  3  1  0
  2  4  1  0
  1  5  2  0
  4  6  2  0
  1  7  1  0
  6  7  1  0
  5  8  1  0
  7  9  1  0
  8  9  2  0
M  END
>  <ID>  (1) 
conformer_0

$$$$
