
     RDKit          3D

  8  8  0  0  0  0  0  0  0  0999 V2000
  130.6068   51.7570   32.6636 C   0  0  0  0  0  0  0  0  0  0  0  0
  131.4811   52.6444   32.4472 C   0  0  0  0  0  0  0  0  0  0  0  0
  129.3935   51.9739   32.1781 C   0  0  0  0  0  0  0  0  0  0  0  0
  132.8222   52.8581   33.0615 C   0  0  0  0  0  0  0  0  0  0  0  0
  129.5813   53.1715   31.1551 O   0  0  0  0  0  0  0  0  0  0  0  0
  130.8966   53.6025   31.5683 N   0  0  0  0  0  0  0  0  0  0  0  0
  133.3852   54.1183   32.9414 N   0  0  0  0  0  0  0  0  0  0  0  0
  134.4503   54.1674   32.2278 C   0  0  0  0  0  0  0  0  0  0  0  0
  1  2  1  0
  1  3  2  0
  2  4  1  0
  3  5  1  0
  2  6  2  0
  5  6  1  0
  4  7  1  0
  7  8  1  0
M  END
>  <ID>  (1) 
conformer_0

$$$$
