
     RDKit          3D

 10 11  0  0  0  0  0  0  0  0999 V2000
  130.8052   51.6140   32.8248 N   0  0  0  0  0  0  0  0  0  0  0  0
  131.6009   52.4759   32.4939 C   0  0  0  0  0  0  0  0  0  0  0  0
  132.9486   52.5160   33.1367 C   0  0  0  0  0  0  0  0  0  0  0  0
  131.3736   53.6154   31.6407 N   0  0  0  0  0  0  0  0  0  0  0  0
  129.4955   51.6690   32.1324 C   0  0  0  0  0  0  0  0  0  0  0  0
  132.3213   54.5851   31.5500 C   0  0  0  0  0  0  0  0  0  0  0  0
  133.5861   53.7982   32.8366 C   0  0  0  0  0  0  0  0  0  0  0  0
  133.3718   54.6498   32.1419 N   0  0  0  0  0  0  0  0  0  0  0  0
  130.0107   53.5313   31.0644 C   0  0  0  0  0  0  0  0  0  0  0  0
  129.3048   52.4863   31.3961 C   0  0  0  0  0  0  0  0  0  0  0  0
  1  2  2  0
  2  3  1  0
  2  4  1  0
  1  5  1  0
  4  6  1  0
  3  7  2  0
  6  8  2  0
  7  8  1  0
  4  9  1  0
  5 10  1  0
  9 10  2  0
M  END
>  <ID>  (1) 
conformer_0

$$$$
