
     RDKit          3D

  9  9  0  0  0  0  0  0  0  0999 V2000
  132.2353   52.4686   33.0807 C   0  0  0  0  0  0  0  0  0  0  0  0
  132.6992   53.5760   32.7341 C   0  0  0  0  0  0  0  0  0  0  0  0
  133.9522   54.0542   33.3505 C   0  0  0  0  0  0  0  0  0  0  0  0
  130.7888   52.0945   32.5237 N   0  0  0  0  0  0  0  0  0  0  0  0
  131.9971   54.4124   31.7702 C   0  0  0  0  0  0  0  0  0  0  0  0
  130.8552   53.9557   31.3883 C   0  0  0  0  0  0  0  0  0  0  0  0
  130.1120   54.6982   30.4007 F   0  0  0  0  0  0  0  0  0  0  0  0
  130.2499   52.7722   31.6817 C   0  0  0  0  0  0  0  0  0  0  0  0
  128.9217   52.2984   31.1675 N   0  0  0  0  0  0  0  0  0  0  0  0
  1  2  2  0
  2  3  1  0
  1  4  1  0
  2  5  1  0
  5  6  2  0
  6  7  1  0
  4  8  2  0
  6  8  1  0
  8  9  1  0
M  END
>  <ID>  (1) 
conformer_0

$$$$
