
     RDKit          3D

  9 10  0  0  0  0  0  0  0  0999 V2000
  131.6150   52.2113   32.8660 C   0  0  0  0  0  0  0  0  0  0  0  0
  132.2587   53.3187   32.6278 C   0  0  0  0  0  0  0  0  0  0  0  0
  133.4032   53.7300   33.3124 N   0  0  0  0  0  0  0  0  0  0  0  0
  133.9061   54.9634   32.8118 C   0  0  0  0  0  0  0  0  0  0  0  0
  131.5700   54.2042   31.7287 C   0  0  0  0  0  0  0  0  0  0  0  0
  130.3974   52.1935   32.1493 C   0  0  0  0  0  0  0  0  0  0  0  0
  132.7390   55.4075   31.7525 S   0  0  0  0  0  0  0  0  0  0  0  0
  130.1631   53.3918   31.3535 S   0  0  0  0  0  0  0  0  0  0  0  0
  129.3627   51.0827   32.0910 C   0  0  0  0  0  0  0  0  0  0  0  0
  1  2  1  0
  2  3  1  0
  3  4  2  0
  2  5  2  0
  1  6  2  0
  4  7  1  0
  5  7  1  0
  5  8  1  0
  6  8  1  0
  6  9  1  0
M  END
>  <ID>  (1) 
conformer_0

$$$$
