
     RDKit          3D

  8  8  0  0  0  0  0  0  0  0999 V2000
  132.2353   52.4686   33.0807 C   0  0  0  0  0  0  0  0  0  0  0  0
  131.1935   51.6947   32.9154 N   0  0  0  0  0  0  0  0  0  0  0  0
  132.3476   53.6711   32.3151 C   0  0  0  0  0  0  0  0  0  0  0  0
  133.4787   54.5663   32.4530 C   0  0  0  0  0  0  0  0  0  0  0  0
  130.1659   52.1611   31.9992 C   0  0  0  0  0  0  0  0  0  0  0  0
  131.4010   54.1131   31.5979 N   0  0  0  0  0  0  0  0  0  0  0  0
  130.2584   53.3865   31.4174 C   0  0  0  0  0  0  0  0  0  0  0  0
  128.8273   51.3075   31.8210 C   0  0  0  0  0  0  0  0  0  0  0  0
  1  2  2  0
  1  3  1  0
  3  4  1  0
  2  5  1  0
  3  6  2  0
  5  7  2  0
  6  7  1  0
  5  8  1  0
M  END
>  <ID>  (1) 
conformer_0

$$$$
