
     RDKit          3D

 10 10  0  0  0  0  0  0  0  0999 V2000
  130.2692   51.3642   32.6422 C   0  0  0  0  0  0  0  0  0  0  0  0
  129.1208   51.4773   31.9790 C   0  0  0  0  0  0  0  0  0  0  0  0
  131.2613   52.2869   32.5237 C   0  0  0  0  0  0  0  0  0  0  0  0
  132.4832   52.2452   33.2599 O   0  0  0  0  0  0  0  0  0  0  0  0
  131.0219   53.5674   31.8864 C   0  0  0  0  0  0  0  0  0  0  0  0
  132.0424   54.5578   31.8892 C   0  0  0  0  0  0  0  0  0  0  0  0
  128.9193   52.6854   31.1810 C   0  0  0  0  0  0  0  0  0  0  0  0
  132.7118   54.9488   31.0249 O   0  0  0  0  0  0  0  0  0  0  0  0
  132.4763   54.9817   33.2005 O   0  0  0  0  0  0  0  0  0  0  0  0
  129.8461   53.6201   31.1701 C   0  0  0  0  0  0  0  0  0  0  0  0
  1  2  1  0
  1  3  2  0
  3  4  1  0
  3  5  1  0
  5  6  1  0
  2  7  2  0
  6  8  2  0
  6  9  1  0
  5 10  2  0
  7 10  1  0
M  END
>  <ID>  (1) 
conformer_0

$$$$
