
     RDKit          3D

  8  8  0  0  0  0  0  0  0  0999 V2000
  130.8052   51.6140   32.8248 C   0  0  0  0  0  0  0  0  0  0  0  0
  129.8004   52.0764   31.8685 C   0  0  0  0  0  0  0  0  0  0  0  0
  128.5321   51.4307   31.6878 C   0  0  0  0  0  0  0  0  0  0  0  0
  131.8682   52.4240   32.9581 C   0  0  0  0  0  0  0  0  0  0  0  0
  131.8541   53.6388   32.1747 C   0  0  0  0  0  0  0  0  0  0  0  0
  130.0384   53.4226   31.2642 C   0  0  0  0  0  0  0  0  0  0  0  0
  133.1077   54.5142   32.4550 C   0  0  0  0  0  0  0  0  0  0  0  0
  131.0431   54.0959   31.4282 N   0  0  0  0  0  0  0  0  0  0  0  0
  1  2  2  0
  2  3  1  0
  1  4  1  0
  4  5  2  0
  2  6  1  0
  5  7  1  0
  5  8  1  0
  6  8  2  0
M  END
>  <ID>  (1) 
conformer_0

$$$$
