
     RDKit          3D

  9 10  0  0  0  0  0  0  0  0999 V2000
  130.4404   51.4860   32.7049 N   0  0  0  0  0  0  0  0  0  0  0  0
  129.2819   51.4955   31.9979 C   0  0  0  0  0  0  0  0  0  0  0  0
  131.1901   52.5923   32.3159 C   0  0  0  0  0  0  0  0  0  0  0  0
  128.8435   52.4244   31.1576 C   0  0  0  0  0  0  0  0  0  0  0  0
  129.6409   53.4947   30.8577 C   0  0  0  0  0  0  0  0  0  0  0  0
  130.8359   53.5638   31.5764 C   0  0  0  0  0  0  0  0  0  0  0  0
  132.5350   52.8257   32.9930 C   0  0  0  0  0  0  0  0  0  0  0  0
  131.8808   54.5894   31.4874 C   0  0  0  0  0  0  0  0  0  0  0  0
  132.8799   54.0774   32.4182 C   0  0  0  0  0  0  0  0  0  0  0  0
  1  2  2  0
  1  3  1  0
  2  4  1  0
  4  5  2  0
  3  6  2  0
  5  6  1  0
  3  7  1  0
  6  8  1  0
  7  9  2  0
  8  9  2  0
M  END
>  <ID>  (1) 
conformer_0

$$$$
