
     RDKit          3D

  8  8  0  0  0  0  0  0  0  0999 V2000
  132.2353   52.4686   33.0807 C   0  0  0  0  0  0  0  0  0  0  0  0
  132.6992   53.5760   32.7341 C   0  0  0  0  0  0  0  0  0  0  0  0
  130.9578   52.0590   32.5103 C   0  0  0  0  0  0  0  0  0  0  0  0
  131.8758   54.4081   31.8840 C   0  0  0  0  0  0  0  0  0  0  0  0
  130.2175   52.7478   31.7039 C   0  0  0  0  0  0  0  0  0  0  0  0
  130.7847   54.1024   31.3957 C   0  0  0  0  0  0  0  0  0  0  0  0
  128.8276   52.3307   31.1701 C   0  0  0  0  0  0  0  0  0  0  0  0
  133.9713   54.1051   33.2382 C   0  0  0  0  0  0  0  0  0  0  0  0
  1  2  2  0
  1  3  1  0
  2  4  1  0
  3  5  2  0
  4  6  2  0
  5  6  1  0
  5  7  1  0
  2  8  1  0
M  END
>  <ID>  (1) 
conformer_0

$$$$
