
     RDKit          3D

  8  8  0  0  0  0  0  0  0  0999 V2000
  131.6150   52.2113   32.8660 C   0  0  0  0  0  0  0  0  0  0  0  0
  132.2587   53.3187   32.6278 C   0  0  0  0  0  0  0  0  0  0  0  0
  130.3735   51.9773   32.2556 N   0  0  0  0  0  0  0  0  0  0  0  0
  133.4822   53.6678   33.2932 C   0  0  0  0  0  0  0  0  0  0  0  0
  131.5970   54.1439   31.7641 C   0  0  0  0  0  0  0  0  0  0  0  0
  129.8197   52.8801   31.5011 C   0  0  0  0  0  0  0  0  0  0  0  0
  130.3977   53.8107   31.2520 C   0  0  0  0  0  0  0  0  0  0  0  0
  134.3486   54.4124   32.6179 N   0  0  0  0  0  0  0  0  0  0  0  0
  1  2  1  0
  1  3  2  0
  2  4  1  0
  2  5  2  0
  3  6  1  0
  5  7  1  0
  6  7  2  0
  4  8  2  0
M  END
>  <ID>  (1) 
conformer_0

$$$$
