
     RDKit          3D

 10 10  0  0  0  0  0  0  0  0999 V2000
  131.3232   52.1436   32.8013 N   0  0  0  0  0  0  0  0  0  0  0  0
  132.1135   53.0148   32.5522 C   0  0  0  0  0  0  0  0  0  0  0  0
  130.1126   51.9896   32.1514 C   0  0  0  0  0  0  0  0  0  0  0  0
  129.7379   52.9736   31.2034 C   0  0  0  0  0  0  0  0  0  0  0  0
  131.8437   54.0462   31.6670 C   0  0  0  0  0  0  0  0  0  0  0  0
  130.6049   53.9985   31.0133 C   0  0  0  0  0  0  0  0  0  0  0  0
  132.7088   55.1238   31.4436 C   0  0  0  0  0  0  0  0  0  0  0  0
  133.2793   55.7669   32.1766 O   0  0  0  0  0  0  0  0  0  0  0  0
  132.9093   55.5294   30.1470 O   0  0  0  0  0  0  0  0  0  0  0  0
  129.2350   50.9170   32.4070 C   0  0  0  0  0  0  0  0  0  0  0  0
  1  2  1  0
  1  3  2  0
  3  4  1  0
  2  5  2  0
  4  6  2  0
  5  6  1  0
  5  7  1  0
  7  8  2  0
  7  9  1  0
  3 10  1  0
M  END
>  <ID>  (1) 
conformer_0

$$$$
