
     RDKit          3D

  9  9  0  0  0  0  0  0  0  0999 V2000
  131.6150   52.2113   32.8660 C   0  0  0  0  0  0  0  0  0  0  0  0
  130.5306   52.3730   32.1059 N   0  0  0  0  0  0  0  0  0  0  0  0
  130.2189   53.4698   31.3247 C   0  0  0  0  0  0  0  0  0  0  0  0
  129.5317   51.3453   32.2296 C   0  0  0  0  0  0  0  0  0  0  0  0
  132.5815   53.3322   32.7151 C   0  0  0  0  0  0  0  0  0  0  0  0
  132.3410   54.4132   31.9093 C   0  0  0  0  0  0  0  0  0  0  0  0
  131.1530   54.4777   31.2415 N   0  0  0  0  0  0  0  0  0  0  0  0
  133.8753   53.3990   33.4923 C   0  0  0  0  0  0  0  0  0  0  0  0
  133.2393   55.5067   31.7991 N   0  0  0  0  0  0  0  0  0  0  0  0
  1  2  1  0
  2  3  1  0
  2  4  1  0
  1  5  1  0
  5  6  2  0
  3  7  2  0
  6  7  1  0
  5  8  1  0
  6  9  1  0
M  END
>  <ID>  (1) 
conformer_0

$$$$
