
     RDKit          3D

  9 10  0  0  0  0  0  0  0  0999 V2000
  130.6068   51.7570   32.6636 C   0  0  0  0  0  0  0  0  0  0  0  0
  131.4811   52.6444   32.4472 C   0  0  0  0  0  0  0  0  0  0  0  0
  129.3935   51.9739   32.1781 C   0  0  0  0  0  0  0  0  0  0  0  0
  132.8222   52.8581   33.0615 C   0  0  0  0  0  0  0  0  0  0  0  0
  131.2054   53.8221   31.5699 C   0  0  0  0  0  0  0  0  0  0  0  0
  133.5413   53.9594   32.7581 C   0  0  0  0  0  0  0  0  0  0  0  0
  129.9452   53.5852   30.9857 C   0  0  0  0  0  0  0  0  0  0  0  0
  129.1355   52.6791   31.2885 N   0  0  0  0  0  0  0  0  0  0  0  0
  132.6624   54.7891   31.7084 S   0  0  0  0  0  0  0  0  0  0  0  0
  1  2  1  0
  1  3  2  0
  2  4  1  0
  2  5  2  0
  4  6  2  0
  5  7  1  0
  3  8  1  0
  7  8  2  0
  5  9  1  0
  6  9  1  0
M  END
>  <ID>  (1) 
conformer_0

$$$$
