
     RDKit          3D

  9 10  0  0  0  0  0  0  0  0999 V2000
  130.6068   51.7570   32.6636 N   0  0  0  0  0  0  0  0  0  0  0  0
  131.5309   52.5282   32.3836 C   0  0  0  0  0  0  0  0  0  0  0  0
  131.1800   53.6596   31.5126 C   0  0  0  0  0  0  0  0  0  0  0  0
  129.7680   53.2984   31.1982 C   0  0  0  0  0  0  0  0  0  0  0  0
  132.8652   52.5790   33.0005 C   0  0  0  0  0  0  0  0  0  0  0  0
  133.5356   53.8182   32.6852 C   0  0  0  0  0  0  0  0  0  0  0  0
  131.9021   54.7067   31.2482 C   0  0  0  0  0  0  0  0  0  0  0  0
  133.0113   54.8223   31.7901 C   0  0  0  0  0  0  0  0  0  0  0  0
  129.5269   52.0639   31.8539 C   0  0  0  0  0  0  0  0  0  0  0  0
  1  2  1  0
  2  3  2  0
  3  4  1  0
  2  5  1  0
  5  6  2  0
  3  7  1  0
  6  8  1  0
  7  8  2  0
  1  9  1  0
  4  9  2  0
M  END
>  <ID>  (1) 
conformer_0

$$$$
