
     RDKit          3D

  5  5  0  0  0  0  0  0  0  0999 V2000
  129.6758   53.2503   31.1763 C   0  0  0  0  0  0  0  0  0  0  0  0
  129.1358   52.0548   31.5066 C   0  0  0  0  0  0  0  0  0  0  0  0
  129.8172   51.2122   32.4062 C   0  0  0  0  0  0  0  0  0  0  0  0
  131.0459   51.6940   32.7801 C   0  0  0  0  0  0  0  0  0  0  0  0
  131.0860   53.3171   31.9124 S   0  0  0  0  0  0  0  0  0  0  0  0
  1  2  2  0
  2  3  1  0
  3  4  2  0
  1  5  1  0
  4  5  1  0
M  END
>  <ID>  (1) 
conformer_0

$$$$
