
     RDKit          3D

  9 10  0  0  0  0  0  0  0  0999 V2000
  130.4404   51.4860   32.7049 C   0  0  0  0  0  0  0  0  0  0  0  0
  131.3714   52.3037   32.5140 C   0  0  0  0  0  0  0  0  0  0  0  0
  132.6297   52.2557   33.2188 C   0  0  0  0  0  0  0  0  0  0  0  0
  130.9525   53.6524   32.0306 C   0  0  0  0  0  0  0  0  0  0  0  0
  133.5174   53.3903   32.9485 C   0  0  0  0  0  0  0  0  0  0  0  0
  129.2355   51.7365   31.8355 C   0  0  0  0  0  0  0  0  0  0  0  0
  132.9520   54.5557   32.3199 C   0  0  0  0  0  0  0  0  0  0  0  0
  131.7732   54.6147   31.8373 C   0  0  0  0  0  0  0  0  0  0  0  0
  129.6320   53.1991   31.4591 N   0  0  0  0  0  0  0  0  0  0  0  0
  1  2  2  0
  2  3  1  0
  2  4  1  0
  3  5  2  0
  1  6  1  0
  5  7  1  0
  4  8  1  0
  7  8  2  0
  4  9  1  0
  6  9  1  0
M  END
>  <ID>  (1) 
conformer_0

$$$$
