
     RDKit          3D

  9 10  0  0  0  0  0  0  0  0999 V2000
  130.6068   51.7570   32.6636 C   0  0  0  0  0  0  0  0  0  0  0  0
  131.4811   52.6444   32.4472 C   0  0  0  0  0  0  0  0  0  0  0  0
  132.7361   52.8524   33.0998 C   0  0  0  0  0  0  0  0  0  0  0  0
  133.5077   54.0010   32.8373 C   0  0  0  0  0  0  0  0  0  0  0  0
  132.7770   54.7361   31.6923 C   0  0  0  0  0  0  0  0  0  0  0  0
  131.0110   53.5463   31.4363 C   0  0  0  0  0  0  0  0  0  0  0  0
  131.7241   54.6362   31.1495 C   0  0  0  0  0  0  0  0  0  0  0  0
  129.6992   52.9409   31.1184 N   0  0  0  0  0  0  0  0  0  0  0  0
  129.4223   51.9144   31.8375 C   0  0  0  0  0  0  0  0  0  0  0  0
  1  2  1  0
  2  3  1  0
  3  4  2  0
  4  5  1  0
  2  6  2  0
  5  7  2  0
  6  7  1  0
  6  8  1  0
  1  9  2  0
  8  9  2  0
M  END
>  <ID>  (1) 
conformer_0

$$$$
