
     RDKit          3D

  9  9  0  0  0  0  0  0  0  0999 V2000
  128.8102   52.2654   31.3333 C   0  0  0  0  0  0  0  0  0  0  0  0
  129.5115   53.3648   30.9051 C   0  0  0  0  0  0  0  0  0  0  0  0
  129.4458   51.3582   32.2341 C   0  0  0  0  0  0  0  0  0  0  0  0
  130.7057   51.6508   32.7601 C   0  0  0  0  0  0  0  0  0  0  0  0
  130.7368   53.6906   31.4504 C   0  0  0  0  0  0  0  0  0  0  0  0
  131.3662   52.8272   32.4316 C   0  0  0  0  0  0  0  0  0  0  0  0
  132.5348   53.1594   32.9321 N   0  0  0  0  0  0  0  0  0  0  0  0
  133.1760   52.4076   33.7201 O   0  0  0  0  0  0  0  0  0  0  0  0
  133.0993   54.3164   32.6836 O   0  0  0  0  0  0  0  0  0  0  0  0
  1  2  1  0
  1  3  2  0
  3  4  1  0
  2  5  2  0
  4  6  2  0
  5  6  1  0
  6  7  1  0
  7  8  1  0
  7  9  2  0
M  CHG  2   7   1   8  -1
M  END
>  <ID>  (1) 
conformer_0

$$$$
