
     RDKit          3D

  9  9  0  0  0  0  0  0  0  0999 V2000
  129.1739   51.6769   31.9031 C   0  0  0  0  0  0  0  0  0  0  0  0
  130.4049   52.3726   31.9859 N   0  0  0  0  0  0  0  0  0  0  0  0
  130.5079   53.6120   31.3764 C   0  0  0  0  0  0  0  0  0  0  0  0
  131.7377   54.3186   31.6027 C   0  0  0  0  0  0  0  0  0  0  0  0
  132.4877   53.3235   32.5230 C   0  0  0  0  0  0  0  0  0  0  0  0
  131.5127   52.2015   32.7805 C   0  0  0  0  0  0  0  0  0  0  0  0
  133.6083   53.4821   33.2809 C   0  0  0  0  0  0  0  0  0  0  0  0
  134.3370   54.5252   33.1035 O   0  0  0  0  0  0  0  0  0  0  0  0
  134.2097   52.5228   33.7590 O   0  0  0  0  0  0  0  0  0  0  0  0
  1  2  1  0
  2  3  1  0
  3  4  2  0
  4  5  1  0
  2  6  1  0
  5  6  2  0
  5  7  1  0
  7  8  2  0
  7  9  1  0
M  END
>  <ID>  (1) 
conformer_0

$$$$
