
     RDKit          3D

  9 10  0  0  0  0  0  0  0  0999 V2000
  132.2353   52.4686   33.0807 C   0  0  0  0  0  0  0  0  0  0  0  0
  132.6992   53.5760   32.7341 C   0  0  0  0  0  0  0  0  0  0  0  0
  130.9578   52.0590   32.5103 C   0  0  0  0  0  0  0  0  0  0  0  0
  130.3334   50.8049   32.8152 O   0  0  0  0  0  0  0  0  0  0  0  0
  128.9713   50.8805   32.2982 C   0  0  0  0  0  0  0  0  0  0  0  0
  132.0627   54.4956   31.8518 C   0  0  0  0  0  0  0  0  0  0  0  0
  130.8570   54.1674   31.3291 C   0  0  0  0  0  0  0  0  0  0  0  0
  129.0349   52.0956   31.4252 C   0  0  0  0  0  0  0  0  0  0  0  0
  130.2502   52.8068   31.7137 C   0  0  0  0  0  0  0  0  0  0  0  0
  1  2  2  0
  1  3  1  0
  3  4  1  0
  4  5  1  0
  2  6  1  0
  6  7  2  0
  5  8  2  0
  3  9  2  0
  7  9  1  0
  8  9  1  0
M  END
>  <ID>  (1) 
conformer_0

$$$$
