
     RDKit          3D

  8  8  0  0  0  0  0  0  0  0999 V2000
  129.0660   51.4823   32.0197 C   0  0  0  0  0  0  0  0  0  0  0  0
  130.3335   51.2234   32.5656 C   0  0  0  0  0  0  0  0  0  0  0  0
  131.1592   52.0482   32.6980 C   0  0  0  0  0  0  0  0  0  0  0  0
  130.7059   53.3178   32.0567 C   0  0  0  0  0  0  0  0  0  0  0  0
  131.5309   54.4363   32.1635 C   0  0  0  0  0  0  0  0  0  0  0  0
  132.5232   54.2345   33.0460 O   0  0  0  0  0  0  0  0  0  0  0  0
  129.1499   52.7690   31.4436 C   0  0  0  0  0  0  0  0  0  0  0  0
  133.7601   54.1718   32.8319 C   0  0  0  0  0  0  0  0  0  0  0  0
  1  2  1  0
  2  3  2  0
  3  4  1  0
  4  5  1  0
  5  6  1  0
  1  7  2  0
  4  7  1  0
  6  8  1  0
M  END
>  <ID>  (1) 
conformer_0

$$$$
