
     RDKit          3D

  8  8  0  0  0  0  0  0  0  0999 V2000
  131.6150   52.2113   32.8660 C   0  0  0  0  0  0  0  0  0  0  0  0
  130.5306   52.3730   32.1059 C   0  0  0  0  0  0  0  0  0  0  0  0
  129.5855   51.3955   32.0234 C   0  0  0  0  0  0  0  0  0  0  0  0
  130.1978   53.6135   31.5222 C   0  0  0  0  0  0  0  0  0  0  0  0
  132.5203   53.3870   32.8519 C   0  0  0  0  0  0  0  0  0  0  0  0
  132.2875   54.5299   32.1837 C   0  0  0  0  0  0  0  0  0  0  0  0
  129.0241   53.5923   30.7277 O   0  0  0  0  0  0  0  0  0  0  0  0
  131.1177   54.7003   31.4265 C   0  0  0  0  0  0  0  0  0  0  0  0
  1  2  1  0
  2  3  1  0
  2  4  2  0
  1  5  2  0
  5  6  1  0
  4  7  1  0
  4  8  1  0
  6  8  2  0
M  END
>  <ID>  (1) 
conformer_0

$$$$
