
     RDKit          3D

 10 10  0  0  0  0  0  0  0  0999 V2000
  130.2692   51.3642   32.6422 C   0  0  0  0  0  0  0  0  0  0  0  0
  131.2790   52.1664   32.4826 C   0  0  0  0  0  0  0  0  0  0  0  0
  131.0186   53.3603   31.7984 C   0  0  0  0  0  0  0  0  0  0  0  0
  132.0156   54.4401   31.7660 C   0  0  0  0  0  0  0  0  0  0  0  0
  129.0711   51.4550   31.8971 C   0  0  0  0  0  0  0  0  0  0  0  0
  132.0410   55.4107   31.0430 O   0  0  0  0  0  0  0  0  0  0  0  0
  133.1770   54.2920   32.4923 N   0  0  0  0  0  0  0  0  0  0  0  0
  128.8656   52.6127   31.1459 C   0  0  0  0  0  0  0  0  0  0  0  0
  129.8711   53.5508   31.0883 C   0  0  0  0  0  0  0  0  0  0  0  0
  134.1977   55.1076   32.6132 C   0  0  0  0  0  0  0  0  0  0  0  0
  1  2  1  0
  2  3  2  0
  3  4  1  0
  1  5  2  0
  4  6  2  0
  4  7  1  0
  5  8  1  0
  3  9  1  0
  8  9  2  0
  7 10  1  0
M  END
>  <ID>  (1) 
conformer_0

$$$$
