
     RDKit          3D

  9 10  0  0  0  0  0  0  0  0999 V2000
  130.6068   51.7570   32.6636 N   0  0  0  0  0  0  0  0  0  0  0  0
  129.4609   51.5545   32.0608 C   0  0  0  0  0  0  0  0  0  0  0  0
  131.2090   52.9306   32.2591 C   0  0  0  0  0  0  0  0  0  0  0  0
  132.4116   53.5043   32.8507 C   0  0  0  0  0  0  0  0  0  0  0  0
  132.9299   54.6922   32.4164 C   0  0  0  0  0  0  0  0  0  0  0  0
  132.1895   55.0224   31.1236 C   0  0  0  0  0  0  0  0  0  0  0  0
  129.2404   52.6127   31.0486 C   0  0  0  0  0  0  0  0  0  0  0  0
  131.1487   54.5178   30.5865 C   0  0  0  0  0  0  0  0  0  0  0  0
  130.5204   53.3681   31.2166 C   0  0  0  0  0  0  0  0  0  0  0  0
  1  2  1  0
  1  3  2  0
  3  4  1  0
  4  5  2  0
  5  6  1  0
  2  7  2  0
  6  8  2  0
  3  9  1  0
  7  9  1  0
  8  9  1  0
M  END
>  <ID>  (1) 
conformer_0

$$$$
