
     RDKit          3D

  8  8  0  0  0  0  0  0  0  0999 V2000
  131.1800   51.9019   32.7145 C   0  0  0  0  0  0  0  0  0  0  0  0
  131.8672   52.9354   32.5385 C   0  0  0  0  0  0  0  0  0  0  0  0
  133.0683   53.1811   33.2264 N   0  0  0  0  0  0  0  0  0  0  0  0
  131.4212   53.9958   31.7035 N   0  0  0  0  0  0  0  0  0  0  0  0
  132.1387   55.0525   31.5774 C   0  0  0  0  0  0  0  0  0  0  0  0
  133.7616   54.2002   33.0648 C   0  0  0  0  0  0  0  0  0  0  0  0
  129.5849   52.0233   32.3183 N   0  0  0  0  0  0  0  0  0  0  0  0
  133.2992   55.2471   32.3209 C   0  0  0  0  0  0  0  0  0  0  0  0
  1  2  1  0
  2  3  1  0
  2  4  2  0
  4  5  1  0
  3  6  2  0
  1  7  1  0
  5  8  2  0
  6  8  1  0
M  END
>  <ID>  (1) 
conformer_0

$$$$
