
     RDKit          3D

 10 11  0  0  0  0  0  0  0  0999 V2000
  131.6150   52.2113   32.8660 C   0  0  0  0  0  0  0  0  0  0  0  0
  132.2587   53.3187   32.6278 C   0  0  0  0  0  0  0  0  0  0  0  0
  133.4032   53.7300   33.3124 N   0  0  0  0  0  0  0  0  0  0  0  0
  133.9061   54.9634   32.8118 C   0  0  0  0  0  0  0  0  0  0  0  0
  131.5700   54.2042   31.7287 C   0  0  0  0  0  0  0  0  0  0  0  0
  132.1781   55.2674   31.5720 C   0  0  0  0  0  0  0  0  0  0  0  0
  133.2645   55.7852   32.0638 N   0  0  0  0  0  0  0  0  0  0  0  0
  130.3403   53.4170   31.4320 C   0  0  0  0  0  0  0  0  0  0  0  0
  130.3994   52.2207   32.0746 C   0  0  0  0  0  0  0  0  0  0  0  0
  129.2436   51.2099   31.9675 C   0  0  0  0  0  0  0  0  0  0  0  0
  1  2  1  0
  2  3  1  0
  3  4  2  0
  2  5  2  0
  5  6  1  0
  4  7  1  0
  6  7  2  0
  5  8  1  0
  1  9  1  0
  8  9  2  0
  9 10  1  0
M  END
>  <ID>  (1) 
conformer_0

$$$$
