
     RDKit          3D

  8  8  0  0  0  0  0  0  0  0999 V2000
  129.0660   51.4823   32.0197 C   0  0  0  0  0  0  0  0  0  0  0  0
  129.4240   52.6994   31.4139 C   0  0  0  0  0  0  0  0  0  0  0  0
  130.5928   53.1992   31.7156 C   0  0  0  0  0  0  0  0  0  0  0  0
  130.9965   54.5131   31.3135 C   0  0  0  0  0  0  0  0  0  0  0  0
  132.1972   54.6924   30.9715 O   0  0  0  0  0  0  0  0  0  0  0  0
  131.3488   52.3977   32.7251 C   0  0  0  0  0  0  0  0  0  0  0  0
  130.8952   51.1960   33.0148 C   0  0  0  0  0  0  0  0  0  0  0  0
  129.8048   50.7794   32.6872 C   0  0  0  0  0  0  0  0  0  0  0  0
  1  2  1  0
  2  3  2  0
  3  4  1  0
  4  5  2  0
  3  6  1  0
  6  7  2  0
  1  8  2  0
  7  8  1  0
M  END
>  <ID>  (1) 
conformer_0

$$$$
