
     RDKit          3D

  8  8  0  0  0  0  0  0  0  0999 V2000
  129.6758   53.2503   31.1763 C   0  0  0  0  0  0  0  0  0  0  0  0
  130.8546   53.8532   31.4887 C   0  0  0  0  0  0  0  0  0  0  0  0
  131.2459   55.0623   30.9904 O   0  0  0  0  0  0  0  0  0  0  0  0
  129.3937   51.9545   31.7031 C   0  0  0  0  0  0  0  0  0  0  0  0
  131.9271   53.1810   32.3563 C   0  0  0  0  0  0  0  0  0  0  0  0
  130.2826   51.3515   32.5952 C   0  0  0  0  0  0  0  0  0  0  0  0
  131.4733   51.9130   32.8771 C   0  0  0  0  0  0  0  0  0  0  0  0
  132.1448   55.2682   30.0256 C   0  0  0  0  0  0  0  0  0  0  0  0
  1  2  2  0
  2  3  1  0
  1  4  1  0
  2  5  1  0
  4  6  2  0
  5  7  2  0
  6  7  1  0
  3  8  1  0
M  END
>  <ID>  (1) 
conformer_0

$$$$
