
     RDKit          3D

  5  5  0  0  0  0  0  0  0  0999 V2000
  128.8102   52.2654   31.3333 C   0  0  0  0  0  0  0  0  0  0  0  0
  129.6555   51.3886   32.0818 C   0  0  0  0  0  0  0  0  0  0  0  0
  129.8475   53.2390   31.2543 C   0  0  0  0  0  0  0  0  0  0  0  0
  130.8953   53.1583   31.8739 N   0  0  0  0  0  0  0  0  0  0  0  0
  130.8476   51.9193   32.4701 N   0  0  0  0  0  0  0  0  0  0  0  0
  1  2  1  0
  1  3  1  0
  3  4  2  0
  2  5  2  0
  4  5  1  0
M  END
>  <ID>  (1) 
conformer_0

$$$$
