
     RDKit          3D

 15 14  0  0  0  0  0  0  0  0999 V2000
   25.7632  -23.9731   -9.1921 O   0  0  0  0  0  1  0  0  0  0  0  0
   24.5632  -23.1731   -9.3921 P   0  0  0  0  0  4  0  0  0  0  0  0
   23.3632  -23.9731   -9.0921 O   0  0  0  0  0  0  0  0  0  0  0  0
   24.4632  -21.8731   -8.6921 O   0  0  0  0  0  0  0  0  0  0  0  0
   24.5632  -22.6731  -10.7921 O   0  0  0  0  0  0  0  0  0  0  0  0
   23.9632  -20.6731   -9.2921 C   0  0  0  0  0  0  0  0  0  0  0  0
   24.7632  -19.4731   -8.9921 C   0  0  0  0  0  0  0  0  0  0  0  0
   24.1632  -18.1731   -9.3921 C   0  0  0  0  0  0  0  0  0  0  0  0
   25.7632  -19.4731   -8.0921 O   0  0  0  0  0  0  0  0  0  0  0  0
   25.4632  -18.3731   -7.1921 C   0  0  0  0  0  0  0  0  0  0  0  0
   24.8632  -16.9731   -9.0921 O   0  0  0  0  0  0  0  0  0  0  0  0
   23.5632  -23.0731  -11.7921 C   0  0  0  0  0  0  0  0  0  0  0  0
   22.9632  -24.3731  -11.4921 C   0  0  0  0  0  0  0  0  0  0  0  0
   21.6632  -24.4731  -10.9921 O   0  0  0  0  0  0  0  0  0  0  0  0
   20.6632  -24.9731  -11.7921 C   0  0  0  0  0  0  0  0  0  0  0  0
  2  1  2  0
  3  2  1  0
  4  2  1  0
  5  2  1  0
  6  4  1  0
  7  6  1  0
  8  7  1  0
  9  7  1  0
 10  9  1  0
 11  8  1  0
 12  5  1  0
 13 12  1  0
 14 13  1  0
 15 14  1  0
M  END
>  <ID>  (1) 
conformer_0

$$$$
