
     RDKit          3D

 11 11  0  0  0  0  0  0  0  0999 V2000
   25.7825  -23.7799   -9.3661 O   0  0  0  0  0  1  0  0  0  0  0  0
   24.4825  -23.0799   -9.5661 P   0  0  0  0  0  4  0  0  0  0  0  0
   23.3825  -23.8799   -8.9661 O   0  0  0  0  0  0  0  0  0  0  0  0
   24.3825  -21.7799   -8.8661 O   0  0  0  0  0  0  0  0  0  0  0  0
   24.1825  -22.8799  -10.9661 O   0  0  0  0  0  0  0  0  0  0  0  0
   23.9825  -20.5799   -9.5661 C   0  0  0  0  0  0  0  0  0  0  0  0
   24.3825  -19.2799   -8.9661 C   0  0  0  0  0  0  0  0  0  0  0  0
   24.3825  -18.1799   -9.9661 C   0  0  0  0  0  0  0  0  0  0  0  0
   23.5825  -18.9799   -7.8661 O   0  0  0  0  0  0  0  0  0  0  0  0
   23.8825  -17.5799   -7.6661 C   0  0  0  0  0  0  0  0  0  0  0  0
   24.0825  -16.8799   -8.9661 C   0  0  0  0  0  0  0  0  0  0  0  0
  2  1  2  0
  3  2  1  0
  4  2  1  0
  5  2  1  0
  6  4  1  0
  7  6  1  0
  8  7  1  0
  9  7  1  0
 10  9  1  0
 11  8  1  0
 11 10  1  0
M  END
>  <ID>  (1) 
conformer_0

$$$$
