
     RDKit          3D

 18 18  0  0  0  0  0  0  0  0999 V2000
   25.7825  -23.7799   -9.3661 O   0  0  0  0  0  1  0  0  0  0  0  0
   24.4825  -23.0799   -9.4661 P   0  0  0  0  0  4  0  0  0  0  0  0
   23.3825  -23.7799   -8.7661 O   0  0  0  0  0  0  0  0  0  0  0  0
   24.6825  -21.7799   -8.7661 O   0  0  0  0  0  0  0  0  0  0  0  0
   25.9825  -21.1799   -8.5661 C   0  0  0  0  0  0  0  0  0  0  0  0
   23.8825  -22.6799  -10.7661 O   0  0  0  0  0  0  0  0  0  0  0  0
   26.3825  -21.0799   -7.1661 C   0  0  0  0  0  0  0  0  0  0  0  0
   25.2825  -21.4799   -6.2661 O   0  0  0  0  0  0  0  0  0  0  0  0
   25.4825  -21.3799   -4.8661 C   0  0  0  0  0  0  0  0  0  0  0  0
   25.2825  -22.3799   -3.8661 C   0  0  0  0  0  0  0  0  0  0  0  0
   26.0825  -23.4799   -4.2661 O   0  0  0  0  0  0  0  0  0  0  0  0
   23.3825  -23.4799  -11.7661 C   0  0  0  0  0  0  0  0  0  0  0  0
   23.1825  -23.4799  -13.1661 C   0  0  0  0  0  0  0  0  0  0  0  0
   21.8825  -23.0799  -13.7661 C   0  0  0  0  0  0  0  0  0  0  0  0
   22.0825  -22.6799  -15.1661 O   0  0  0  0  0  0  0  0  0  0  0  0
   23.3825  -23.0799  -15.5661 C   0  0  0  0  0  0  0  0  0  0  0  0
   23.2825  -24.7799  -13.8661 O   0  0  0  0  0  0  0  0  0  0  0  0
   23.6825  -24.4799  -15.2661 C   0  0  0  0  0  0  0  0  0  0  0  0
  2  1  2  0
  3  2  1  0
  4  2  1  0
  5  4  1  0
  6  2  1  0
  7  5  1  0
  8  7  1  0
  9  8  1  0
 10  9  1  0
 11 10  1  0
 12  6  1  0
 13 12  1  0
 14 13  1  0
 15 14  1  0
 16 15  1  0
 17 13  1  0
 18 16  1  0
 18 17  1  0
M  END
>  <ID>  (1) 
conformer_0

$$$$
