
     RDKit          3D

 11 11  0  0  0  0  0  0  0  0999 V2000
   25.7054  -24.0687   -9.2745 O   0  0  0  0  0  1  0  0  0  0  0  0
   24.6054  -23.0687   -9.2745 P   0  0  0  0  0  4  0  0  0  0  0  0
   23.3054  -23.7687   -9.1745 O   0  0  0  0  0  0  0  0  0  0  0  0
   24.5054  -22.0687   -8.1745 O   0  0  0  0  0  0  0  0  0  0  0  0
   24.7054  -22.5687  -10.6745 O   0  0  0  0  0  0  0  0  0  0  0  0
   23.5054  -22.1687   -7.0745 C   0  0  0  0  0  0  0  0  0  0  0  0
   23.7054  -21.1687   -5.9745 C   0  0  0  0  0  0  0  0  0  0  0  0
   25.2054  -21.1687   -5.9745 O   0  0  0  0  0  0  0  0  0  0  0  0
   25.6054  -22.5687   -5.6745 C   0  0  0  0  0  0  0  0  0  0  0  0
   26.2054  -22.7687   -4.3745 C   0  0  0  0  0  0  0  0  0  0  0  0
   24.6054  -22.9687   -4.6745 C   0  0  0  0  0  0  0  0  0  0  0  0
  2  1  2  0
  3  2  1  0
  4  2  1  0
  5  2  1  0
  6  4  1  0
  7  6  1  0
  8  7  1  0
  9  8  1  0
 10  9  1  0
 11  9  1  0
 11 10  1  0
M  END
>  <ID>  (1) 
conformer_0

$$$$
