
     RDKit          3D

 16 17  0  0  0  0  0  0  0  0999 V2000
   25.5243  -23.8609   -9.7183 O   0  0  0  0  0  1  0  0  0  0  0  0
   24.3243  -23.1609   -9.3183 P   0  0  0  0  0  4  0  0  0  0  0  0
   23.1243  -23.9609   -8.9183 O   0  0  0  0  0  0  0  0  0  0  0  0
   24.5243  -22.0609   -8.3183 O   0  0  0  0  0  0  0  0  0  0  0  0
   23.8243  -22.4609  -10.5183 O   0  0  0  0  0  0  0  0  0  0  0  0
   25.7243  -21.3609   -8.5183 C   0  0  0  0  0  0  0  0  0  0  0  0
   25.9243  -20.9609   -9.9183 C   0  0  0  0  0  0  0  0  0  0  0  0
   24.6243  -21.2609  -10.8183 C   0  0  0  0  0  0  0  0  0  0  0  0
   25.0243  -20.9609  -12.2183 C   0  0  0  0  0  0  0  0  0  0  0  0
   26.0243  -19.8609  -12.1183 C   0  0  0  0  0  0  0  0  0  0  0  0
   26.7243  -19.6609  -13.4183 C   0  0  0  0  0  0  0  0  0  0  0  0
   26.4243  -20.8609  -14.2183 C   0  0  0  0  0  0  0  0  0  0  0  0
   27.4243  -21.5609  -14.9183 N   0  0  0  0  0  0  0  0  0  0  0  0
   27.0243  -22.0609  -16.1183 C   0  0  0  0  0  0  0  0  0  0  0  0
   25.6243  -21.8609  -16.1183 C   0  0  0  0  0  0  0  0  0  0  0  0
   25.2243  -21.2609  -14.7183 C   0  0  0  0  0  0  0  0  0  0  0  0
  2  1  2  0
  3  2  1  0
  4  2  1  0
  5  2  1  0
  6  4  1  0
  7  6  1  0
  8  5  1  0
  8  7  1  0
  9  8  1  0
 10  9  1  0
 11 10  1  0
 12 11  1  0
 13 12  1  0
 14 13  1  0
 15 14  1  0
 16 12  1  0
 16 15  1  0
M  END
>  <ID>  (1) 
conformer_0

$$$$
