
     RDKit          3D

 12 13  0  0  0  0  0  0  0  0999 V2000
   25.6642  -24.0547   -9.4711 O   0  0  0  0  0  1  0  0  0  0  0  0
   24.5642  -23.0547   -9.5711 P   0  0  0  0  0  4  0  0  0  0  0  0
   23.3642  -23.9547   -9.5711 O   0  0  0  0  0  0  0  0  0  0  0  0
   24.6642  -21.8547   -8.7711 O   0  0  0  0  0  0  0  0  0  0  0  0
   24.7642  -22.5547  -10.9711 O   0  0  0  0  0  0  0  0  0  0  0  0
   24.5642  -21.1547  -11.1711 C   0  0  0  0  0  0  0  0  0  0  0  0
   25.1642  -20.0547  -10.3711 C   0  0  0  0  0  0  0  0  0  0  0  0
   25.6642  -20.9547   -9.1711 C   0  0  0  0  0  0  0  0  0  0  0  0
   23.7642  -20.5547  -12.2711 C   0  0  0  0  0  0  0  0  0  0  0  0
   24.5642  -19.4547  -12.8711 O   0  0  0  0  0  0  0  0  0  0  0  0
   23.6642  -19.0547  -11.8711 C   0  0  0  0  0  0  0  0  0  0  0  0
   22.6642  -18.3547  -12.1711 O   0  0  0  0  0  0  0  0  0  0  0  0
  2  1  2  0
  3  2  1  0
  4  2  1  0
  5  2  1  0
  6  5  1  0
  7  6  1  0
  8  4  1  0
  8  7  1  0
  9  6  1  0
 10  9  1  0
 11  9  1  0
 11 10  1  0
 12 11  1  0
M  END
>  <ID>  (1) 
conformer_0

$$$$
