
     RDKit          3D

 11 11  0  0  0  0  0  0  0  0999 V2000
   24.5163  -23.0798   -9.5279 P   0  0  0  0  0  4  0  0  0  0  0  0
   25.7163  -23.8798   -9.6279 O   0  0  0  0  0  1  0  0  0  0  0  0
   23.3163  -23.9798   -9.5279 O   0  0  0  0  0  0  0  0  0  0  0  0
   24.1163  -22.0798   -8.5279 O   0  0  0  0  0  0  0  0  0  0  0  0
   24.4163  -22.3798  -10.8279 O   0  0  0  0  0  0  0  0  0  0  0  0
   23.3163  -22.5798   -7.4279 C   0  0  0  0  0  0  0  0  0  0  0  0
   22.9163  -23.9798   -7.1279 C   0  0  0  0  0  0  0  0  0  0  0  0
   23.4163  -24.6798   -6.1279 O   0  0  0  0  0  0  0  0  0  0  0  0
   23.0163  -25.9798   -5.6279 C   0  0  0  0  0  0  0  0  0  0  0  0
   22.6163  -23.9798  -10.8279 C   0  0  0  0  0  0  0  0  0  0  0  0
   23.4163  -23.1798  -11.7279 C   0  0  0  0  0  0  0  0  0  0  0  0
  2  1  2  0
  3  1  1  0
  4  1  1  0
  5  1  1  0
  6  4  1  0
  7  6  1  0
  8  7  1  0
  9  8  1  0
 10  3  1  0
 11  5  1  0
 11 10  1  0
M  END
>  <ID>  (1) 
conformer_0

$$$$
