
     RDKit          3D

  5  4  0  0  0  0  0  0  0  0999 V2000
   25.4117  -23.9288   -9.7321 O   0  0  0  0  0  1  0  0  0  0  0  0
   24.3117  -23.2288   -9.0321 P   0  0  0  0  0  4  0  0  0  0  0  0
   23.2117  -23.9288   -8.3321 O   0  0  0  0  0  0  0  0  0  0  0  0
   24.5117  -21.8288   -8.7321 O   0  0  0  0  0  0  0  0  0  0  0  0
   23.0117  -23.4288   -9.6321 C   0  0  0  0  0  0  0  0  0  0  0  0
  2  1  2  0
  4  2  1  0
  5  2  1  0
  5  3  1  0
M  END
>  <ID>  (1) 
conformer_0

$$$$
