
     RDKit          3D

 10 10  0  0  0  0  0  0  0  0999 V2000
   24.6575  -23.1075   -9.3647 P   0  0  0  0  0  4  0  0  0  0  0  0
   25.8575  -24.0075   -9.3647 O   0  0  0  0  0  1  0  0  0  0  0  0
   23.3575  -23.8075   -9.1647 O   0  0  0  0  0  0  0  0  0  0  0  0
   24.7575  -22.0075   -8.3647 O   0  0  0  0  0  0  0  0  0  0  0  0
   24.4575  -22.4075  -10.6647 O   0  0  0  0  0  0  0  0  0  0  0  0
   25.7575  -21.0075   -8.8647 C   0  0  0  0  0  0  0  0  0  0  0  0
   25.7575  -20.5075  -10.2647 C   0  0  0  0  0  0  0  0  0  0  0  0
   24.5575  -21.0075  -10.8647 C   0  0  0  0  0  0  0  0  0  0  0  0
   26.9575  -20.7075   -8.1647 C   0  0  0  0  0  0  0  0  0  0  0  0
   27.5575  -21.9075   -7.5647 O   0  0  0  0  0  0  0  0  0  0  0  0
  2  1  2  0
  3  1  1  0
  4  1  1  0
  5  1  1  0
  6  4  1  0
  7  6  1  0
  8  5  1  0
  8  7  1  0
  9  6  1  0
 10  9  1  0
M  END
>  <ID>  (1) 
conformer_0

$$$$
