
     RDKit          3D

 14 15  0  0  0  0  0  0  0  0999 V2000
   25.5243  -23.8609   -9.7183 O   0  0  0  0  0  1  0  0  0  0  0  0
   24.3243  -23.1609   -9.3183 P   0  0  0  0  0  4  0  0  0  0  0  0
   23.1243  -23.9609   -8.9183 O   0  0  0  0  0  0  0  0  0  0  0  0
   24.5243  -22.0609   -8.3183 O   0  0  0  0  0  0  0  0  0  0  0  0
   23.8243  -22.4609  -10.5183 O   0  0  0  0  0  0  0  0  0  0  0  0
   25.7243  -21.3609   -8.5183 C   0  0  0  0  0  0  0  0  0  0  0  0
   26.0243  -20.9609   -9.9183 C   0  0  0  0  0  0  0  0  0  0  0  0
   24.7243  -21.3609  -10.8183 C   0  0  0  0  0  0  0  0  0  0  0  0
   24.9243  -20.9609  -12.2183 C   0  0  0  0  0  0  0  0  0  0  0  0
   25.7243  -19.7609  -12.0183 C   0  0  0  0  0  0  0  0  0  0  0  0
   26.1243  -19.1609  -13.3183 C   0  0  0  0  0  0  0  0  0  0  0  0
   26.3243  -20.2609  -14.2183 C   0  0  0  0  0  0  0  0  0  0  0  0
   25.6243  -21.3609  -14.5183 C   0  0  0  0  0  0  0  0  0  0  0  0
   26.8243  -21.3609  -13.7183 O   0  0  0  0  0  0  0  0  0  0  0  0
  2  1  2  0
  3  2  1  0
  4  2  1  0
  5  2  1  0
  6  4  1  0
  7  6  1  0
  8  5  1  0
  8  7  1  0
  9  8  1  0
 10  9  1  0
 11 10  1  0
 12 11  1  0
 13 12  1  0
 14 12  1  0
 14 13  1  0
M  END
>  <ID>  (1) 
conformer_0

$$$$
