
     RDKit          3D

 10 11  0  0  0  0  0  0  0  0999 V2000
   25.6642  -24.0547   -9.4711 O   0  0  0  0  0  1  0  0  0  0  0  0
   24.5642  -23.0547   -9.5711 P   0  0  0  0  0  4  0  0  0  0  0  0
   23.3642  -23.9547   -9.5711 O   0  0  0  0  0  0  0  0  0  0  0  0
   24.6642  -21.8547   -8.7711 O   0  0  0  0  0  0  0  0  0  0  0  0
   24.7642  -22.5547  -10.9711 O   0  0  0  0  0  0  0  0  0  0  0  0
   25.2642  -21.1547  -11.0711 C   0  0  0  0  0  0  0  0  0  0  0  0
   25.4642  -20.8547   -9.4711 C   0  0  0  0  0  0  0  0  0  0  0  0
   25.1642  -19.4547   -9.1711 C   0  0  0  0  0  0  0  0  0  0  0  0
   24.1642  -19.2547   -8.0711 C   0  0  0  0  0  0  0  0  0  0  0  0
   25.4642  -19.7547   -7.6711 O   0  0  0  0  0  0  0  0  0  0  0  0
  2  1  2  0
  3  2  1  0
  4  2  1  0
  5  2  1  0
  6  5  1  0
  7  4  1  0
  7  6  1  0
  8  7  1  0
  9  8  1  0
 10  8  1  0
 10  9  1  0
M  END
>  <ID>  (1) 
conformer_0

$$$$
