
     RDKit          3D

 15 15  0  0  0  0  0  0  0  0999 V2000
   25.6744  -23.9076   -9.5204 O   0  0  0  0  0  1  0  0  0  0  0  0
   24.3744  -23.2076   -9.6204 P   0  0  0  0  0  4  0  0  0  0  0  0
   23.2744  -24.0076   -9.0204 O   0  0  0  0  0  0  0  0  0  0  0  0
   24.3744  -21.9076   -8.9204 O   0  0  0  0  0  0  0  0  0  0  0  0
   23.9744  -23.0076  -11.0204 O   0  0  0  0  0  0  0  0  0  0  0  0
   25.6744  -21.4076   -8.5204 C   0  0  0  0  0  0  0  0  0  0  0  0
   25.5744  -20.9076   -7.1204 C   0  0  0  0  0  0  0  0  0  0  0  0
   24.3744  -20.5076   -6.5204 C   0  0  0  0  0  0  0  0  0  0  0  0
   24.7744  -21.8076   -6.3204 O   0  0  0  0  0  0  0  0  0  0  0  0
   24.1744  -19.4076   -5.8204 C   0  0  0  0  0  0  0  0  0  0  0  0
   22.8744  -19.0076   -5.2204 O   0  0  0  0  0  0  0  0  0  0  0  0
   23.2744  -24.2076  -11.4204 C   0  0  0  0  0  0  0  0  0  0  0  0
   22.8744  -24.4076  -12.7204 C   0  0  0  0  0  0  0  0  0  0  0  0
   21.4744  -24.8076  -13.0204 O   0  0  0  0  0  0  0  0  0  0  0  0
   21.0744  -24.2076  -14.2204 C   0  0  0  0  0  0  0  0  0  0  0  0
  2  1  2  0
  3  2  1  0
  4  2  1  0
  5  2  1  0
  6  4  1  0
  7  6  1  0
  8  7  1  0
  9  7  1  0
  9  8  1  0
 10  8  1  0
 11 10  1  0
 12  5  1  0
 13 12  1  0
 14 13  1  0
 15 14  1  0
M  END
>  <ID>  (1) 
conformer_0

$$$$
