
     RDKit          3D

 14 15  0  0  0  0  0  0  0  0999 V2000
   24.5163  -23.0798   -9.5279 P   0  0  0  0  0  4  0  0  0  0  0  0
   25.6163  -23.9798   -9.6279 O   0  0  0  0  0  1  0  0  0  0  0  0
   23.3163  -23.8798   -9.2279 O   0  0  0  0  0  0  0  0  0  0  0  0
   24.5163  -21.7798   -8.8279 O   0  0  0  0  0  0  0  0  0  0  0  0
   24.2163  -22.6798  -10.9279 O   0  0  0  0  0  0  0  0  0  0  0  0
   24.6163  -20.4798   -9.5279 C   0  0  0  0  0  0  0  0  0  0  0  0
   24.3163  -19.2798   -8.8279 C   0  0  0  0  0  0  0  0  0  0  0  0
   23.3163  -18.2798   -9.2279 C   0  0  0  0  0  0  0  0  0  0  0  0
   24.0163  -19.5798   -7.4279 O   0  0  0  0  0  0  0  0  0  0  0  0
   23.4163  -18.4798   -6.8279 C   0  0  0  0  0  0  0  0  0  0  0  0
   22.9163  -17.5798   -7.8279 C   0  0  0  0  0  0  0  0  0  0  0  0
   22.9163  -23.0798  -11.5279 C   0  0  0  0  0  0  0  0  0  0  0  0
   22.3163  -23.8798  -10.4279 C   0  0  0  0  0  0  0  0  0  0  0  0
   22.4163  -18.8798   -5.8279 N   0  0  0  0  0  0  0  0  0  0  0  0
  2  1  2  0
  3  1  1  0
  4  1  1  0
  5  1  1  0
  6  4  1  0
  7  6  1  0
  8  7  1  0
  9  7  1  0
 10  9  1  0
 11  8  1  0
 11 10  1  0
 12  5  1  0
 13  3  1  0
 13 12  2  0
 14 10  1  0
M  END
>  <ID>  (1) 
conformer_0

$$$$
