
     RDKit          3D

 11 12  0  0  0  0  0  0  0  0999 V2000
   25.6616  -23.8296   -9.5261 O   0  0  0  0  0  1  0  0  0  0  0  0
   24.3616  -23.1296   -9.5261 P   0  0  0  0  0  4  0  0  0  0  0  0
   23.1616  -24.0296   -9.5261 O   0  0  0  0  0  0  0  0  0  0  0  0
   24.2616  -22.3296   -8.3261 O   0  0  0  0  0  0  0  0  0  0  0  0
   24.1616  -22.1296  -10.6261 O   0  0  0  0  0  0  0  0  0  0  0  0
   23.8616  -20.7296  -10.2261 C   0  0  0  0  0  0  0  0  0  0  0  0
   23.8616  -20.9296   -8.6261 C   0  0  0  0  0  0  0  0  0  0  0  0
   24.2616  -19.6296   -8.0261 C   0  0  0  0  0  0  0  0  0  0  0  0
   24.4616  -19.4296  -10.5261 C   0  0  0  0  0  0  0  0  0  0  0  0
   24.4616  -18.6296   -9.1261 C   0  0  0  0  0  0  0  0  0  0  0  0
   23.5616  -17.5296   -9.1261 O   0  0  0  0  0  0  0  0  0  0  0  0
  2  1  2  0
  3  2  1  0
  4  2  1  0
  5  2  1  0
  6  5  1  0
  7  4  1  0
  7  6  1  0
  8  7  1  0
  9  6  1  0
 10  8  1  0
 10  9  1  0
 11 10  1  0
M  END
>  <ID>  (1) 
conformer_0

$$$$
