
     RDKit          3D

 12 12  0  0  0  0  0  0  0  0999 V2000
   25.6642  -24.0547   -9.4711 O   0  0  0  0  0  1  0  0  0  0  0  0
   24.5642  -23.0547   -9.5711 P   0  0  0  0  0  4  0  0  0  0  0  0
   23.3642  -23.8547   -9.1711 O   0  0  0  0  0  0  0  0  0  0  0  0
   24.6642  -21.9547   -8.5711 O   0  0  0  0  0  0  0  0  0  0  0  0
   24.4642  -22.3547  -10.8711 O   0  0  0  0  0  0  0  0  0  0  0  0
   25.8642  -21.1547   -8.7711 C   0  0  0  0  0  0  0  0  0  0  0  0
   26.0642  -20.6547  -10.1711 C   0  0  0  0  0  0  0  0  0  0  0  0
   24.9642  -21.0547  -11.0711 C   0  0  0  0  0  0  0  0  0  0  0  0
   25.0642  -20.3547  -12.3711 C   0  0  0  0  0  0  0  0  0  0  0  0
   25.5642  -19.0547  -11.9711 C   0  0  0  0  0  0  0  0  0  0  0  0
   26.7642  -18.5547  -12.2711 O   0  0  0  0  0  0  0  0  0  0  0  0
   24.5642  -18.0547  -11.8711 N   0  0  0  0  0  0  0  0  0  0  0  0
  2  1  2  0
  3  2  1  0
  4  2  1  0
  5  2  1  0
  6  4  1  0
  7  6  1  0
  8  5  1  0
  8  7  1  0
  9  8  1  0
 10  9  1  0
 11 10  2  0
 12 10  1  0
M  END
>  <ID>  (1) 
conformer_0

$$$$
