
     RDKit          3D

 19 21  0  0  0  0  0  0  0  0999 V2000
   24.5163  -23.0798   -9.5279 P   0  0  0  0  0  4  0  0  0  0  0  0
   25.7163  -23.8798   -9.6279 O   0  0  0  0  0  1  0  0  0  0  0  0
   23.4163  -23.8798   -8.9279 O   0  0  0  0  0  0  0  0  0  0  0  0
   24.7163  -21.7798   -8.8279 O   0  0  0  0  0  0  0  0  0  0  0  0
   24.0163  -22.5798  -10.8279 O   0  0  0  0  0  0  0  0  0  0  0  0
   25.7163  -20.9798   -9.5279 C   0  0  0  0  0  0  0  0  0  0  0  0
   25.6163  -20.6798  -10.9279 C   0  0  0  0  0  0  0  0  0  0  0  0
   24.4163  -21.3798  -11.4279 C   0  0  0  0  0  0  0  0  0  0  0  0
   24.2163  -20.9798  -12.8279 C   0  0  0  0  0  0  0  0  0  0  0  0
   24.7163  -19.5798  -12.9279 C   0  0  0  0  0  0  0  0  0  0  0  0
   25.1163  -19.2798  -14.3279 C   0  0  0  0  0  0  0  0  0  0  0  0
   24.8163  -20.4798  -15.1279 C   0  0  0  0  0  0  0  0  0  0  0  0
   25.6163  -20.5798  -16.3279 N   0  0  0  0  0  0  0  0  0  0  0  0
   23.9163  -19.6798  -15.0279 O   0  0  0  0  0  0  0  0  0  0  0  0
   25.3163  -21.5798  -17.2279 C   0  0  0  0  0  0  0  0  0  0  0  0
   26.2163  -22.0798  -18.1279 C   0  0  0  0  0  0  0  0  0  0  0  0
   24.0163  -22.1798  -17.1279 C   0  0  0  0  0  0  0  0  0  0  0  0
   24.1163  -23.2799  -18.0279 O   0  0  0  0  0  0  0  0  0  0  0  0
   25.3163  -23.1798  -18.8279 C   0  0  0  0  0  0  0  0  0  0  0  0
  2  1  2  0
  3  1  1  0
  4  1  1  0
  5  1  1  0
  6  4  1  0
  7  6  1  0
  8  5  1  0
  8  7  1  0
  9  8  1  0
 10  9  1  0
 11 10  1  0
 12 11  1  0
 13 12  1  0
 14 11  1  0
 14 12  1  0
 15 13  1  0
 16 15  1  0
 17 15  1  0
 18 17  1  0
 19 16  1  0
 19 18  1  0
M  END
>  <ID>  (1) 
conformer_0

$$$$
