
     RDKit          3D

 17 17  0  0  0  0  0  0  0  0999 V2000
   25.7825  -23.7799   -9.3661 O   0  0  0  0  0  1  0  0  0  0  0  0
   24.4825  -23.0799   -9.5661 P   0  0  0  0  0  4  0  0  0  0  0  0
   23.3825  -23.8799   -8.9661 O   0  0  0  0  0  0  0  0  0  0  0  0
   24.3825  -21.7799   -8.8661 O   0  0  0  0  0  0  0  0  0  0  0  0
   24.1825  -22.6799  -10.9661 O   0  0  0  0  0  0  0  0  0  0  0  0
   24.1825  -20.4799   -9.4661 C   0  0  0  0  0  0  0  0  0  0  0  0
   25.0825  -19.3799   -9.3661 C   0  0  0  0  0  0  0  0  0  0  0  0
   24.2825  -18.1799   -8.9661 C   0  0  0  0  0  0  0  0  0  0  0  0
   24.8825  -17.5799   -7.7661 C   0  0  0  0  0  0  0  0  0  0  0  0
   26.0825  -19.5799   -8.2661 O   0  0  0  0  0  0  0  0  0  0  0  0
   25.6825  -18.6799   -7.1661 C   0  0  0  0  0  0  0  0  0  0  0  0
   23.4825  -23.2799  -11.9661 C   0  0  0  0  0  0  0  0  0  0  0  0
   22.0825  -23.0799  -12.2661 C   0  0  0  0  0  0  0  0  0  0  0  0
   21.5825  -23.1799  -13.6661 C   0  0  0  0  0  0  0  0  0  0  0  0
   21.4825  -22.0799  -11.4661 O   0  0  0  0  0  0  0  0  0  0  0  0
   20.4825  -21.3799  -12.1661 C   0  0  0  0  0  0  0  0  0  0  0  0
   20.1825  -23.1799  -13.8661 O   0  0  0  0  0  0  0  0  0  0  0  0
  2  1  2  0
  3  2  1  0
  4  2  1  0
  5  2  1  0
  6  4  1  0
  7  6  1  0
  8  7  1  0
  9  8  1  0
 10  7  1  0
 11  9  1  0
 11 10  1  0
 12  5  1  0
 13 12  1  0
 14 13  1  0
 15 13  1  0
 16 15  1  0
 17 14  1  0
M  END
>  <ID>  (1) 
conformer_0

$$$$
