
     RDKit          3D

 10 11  0  0  0  0  0  0  0  0999 V2000
   25.6744  -23.9076   -9.5204 O   0  0  0  0  0  1  0  0  0  0  0  0
   24.5744  -22.9076   -9.4204 P   0  0  0  0  0  4  0  0  0  0  0  0
   23.4744  -23.8076   -9.2204 O   0  0  0  0  0  0  0  0  0  0  0  0
   24.7744  -21.9076   -8.3204 O   0  0  0  0  0  0  0  0  0  0  0  0
   24.5744  -22.2076  -10.7204 O   0  0  0  0  0  0  0  0  0  0  0  0
   25.6744  -20.9076   -8.9204 C   0  0  0  0  0  0  0  0  0  0  0  0
   25.3744  -21.0076  -10.6204 C   0  0  0  0  0  0  0  0  0  0  0  0
   25.2744  -19.5076   -8.6204 C   0  0  0  0  0  0  0  0  0  0  0  0
   25.0744  -19.6076  -11.0204 C   0  0  0  0  0  0  0  0  0  0  0  0
   24.6744  -18.8076   -9.8204 C   0  0  0  0  0  0  0  0  0  0  0  0
  2  1  2  0
  3  2  1  0
  4  2  1  0
  5  2  1  0
  6  4  1  0
  7  5  1  0
  7  6  1  0
  8  6  1  0
  9  7  1  0
 10  8  1  0
 10  9  1  0
M  END
>  <ID>  (1) 
conformer_0

$$$$
