
     RDKit          3D

 13 14  0  0  0  0  0  0  0  0999 V2000
   25.5243  -23.8609   -9.7183 O   0  0  0  0  0  1  0  0  0  0  0  0
   24.3243  -23.1609   -9.3183 P   0  0  0  0  0  4  0  0  0  0  0  0
   23.1243  -23.9609   -8.9183 O   0  0  0  0  0  0  0  0  0  0  0  0
   24.5243  -22.0609   -8.3183 O   0  0  0  0  0  0  0  0  0  0  0  0
   23.8243  -22.4609  -10.5183 O   0  0  0  0  0  0  0  0  0  0  0  0
   25.7243  -21.3609   -8.5183 C   0  0  0  0  0  0  0  0  0  0  0  0
   26.0243  -21.0609   -9.9183 C   0  0  0  0  0  0  0  0  0  0  0  0
   24.7243  -21.3609  -10.8183 C   0  0  0  0  0  0  0  0  0  0  0  0
   25.1243  -20.9609  -12.1183 C   0  0  0  0  0  0  0  0  0  0  0  0
   25.9243  -21.0609  -13.0183 O   0  0  0  0  0  0  0  0  0  0  0  0
   26.1243  -19.9609  -12.1183 C   0  0  0  0  0  0  0  0  0  0  0  0
   25.6243  -18.6609  -12.6183 C   0  0  0  0  0  0  0  0  0  0  0  0
   26.5243  -17.6609  -12.5183 O   0  0  0  0  0  0  0  0  0  0  0  0
  2  1  2  0
  3  2  1  0
  4  2  1  0
  5  2  1  0
  6  4  1  0
  7  6  1  0
  8  5  1  0
  8  7  1  0
  9  8  1  0
 10  9  1  0
 11  9  1  0
 11 10  1  0
 12 11  1  0
 13 12  1  0
M  END
>  <ID>  (1) 
conformer_0

$$$$
