
     RDKit          3D

 12 12  0  0  0  0  0  0  0  0999 V2000
   24.5163  -23.0798   -9.5279 P   0  0  0  0  0  4  0  0  0  0  0  0
   25.7163  -23.8798   -9.6279 O   0  0  0  0  0  1  0  0  0  0  0  0
   23.5163  -23.9798   -8.9279 O   0  0  0  0  0  0  0  0  0  0  0  0
   24.5163  -21.6798   -9.0279 O   0  0  0  0  0  0  0  0  0  0  0  0
   24.1163  -22.7798  -10.9279 O   0  0  0  0  0  0  0  0  0  0  0  0
   24.2163  -20.5798   -9.9279 C   0  0  0  0  0  0  0  0  0  0  0  0
   23.9163  -21.3798  -11.3279 C   0  0  0  0  0  0  0  0  0  0  0  0
   23.1163  -19.6798   -9.7279 C   0  0  0  0  0  0  0  0  0  0  0  0
   22.1163  -19.5798  -10.7279 C   0  0  0  0  0  0  0  0  0  0  0  0
   21.6163  -18.2798  -11.1279 C   0  0  0  0  0  0  0  0  0  0  0  0
   21.3163  -17.7798  -12.3279 N   0  0  0  0  0  0  0  0  0  0  0  0
   21.8163  -17.4798  -10.1279 O   0  0  0  0  0  0  0  0  0  0  0  0
  2  1  2  0
  3  1  1  0
  4  1  1  0
  5  1  1  0
  6  4  1  0
  7  5  1  0
  7  6  1  0
  8  6  1  0
  9  8  1  0
 10  9  1  0
 11 10  1  0
 12 10  2  0
M  END
>  <ID>  (1) 
conformer_0

$$$$
