
     RDKit          3D

 18 19  0  0  0  0  0  0  0  0999 V2000
   24.5163  -23.0798   -9.5279 P   0  0  0  0  0  4  0  0  0  0  0  0
   25.7163  -23.8798   -9.6279 O   0  0  0  0  0  1  0  0  0  0  0  0
   23.4163  -24.0798   -9.3279 O   0  0  0  0  0  0  0  0  0  0  0  0
   24.4163  -21.7798   -8.8279 O   0  0  0  0  0  0  0  0  0  0  0  0
   24.3163  -22.5798  -10.9279 O   0  0  0  0  0  0  0  0  0  0  0  0
   24.7163  -21.2798  -11.2279 C   0  0  0  0  0  0  0  0  0  0  0  0
   25.8163  -20.6798  -10.4279 C   0  0  0  0  0  0  0  0  0  0  0  0
   25.4163  -20.7798   -8.9279 C   0  0  0  0  0  0  0  0  0  0  0  0
   24.8163  -20.8798  -12.6279 C   0  0  0  0  0  0  0  0  0  0  0  0
   25.6163  -19.6798  -12.6279 C   0  0  0  0  0  0  0  0  0  0  0  0
   26.1163  -19.4798  -14.0279 C   0  0  0  0  0  0  0  0  0  0  0  0
   26.3163  -20.7798  -14.7279 C   0  0  0  0  0  0  0  0  0  0  0  0
   27.5163  -21.2798  -15.0279 N   0  0  0  0  0  0  0  0  0  0  0  0
   25.3163  -21.6798  -14.8279 C   0  0  0  0  0  0  0  0  0  0  0  0
   25.6163  -22.4798  -15.8279 C   0  0  0  0  0  0  0  0  0  0  0  0
   26.3163  -22.0798  -16.8279 N   0  0  0  0  0  0  0  0  0  0  0  0
   27.4163  -21.5798  -16.3279 C   0  0  0  0  0  0  0  0  0  0  0  0
   26.5163  -20.7798  -16.9279 N   0  0  0  0  0  0  0  0  0  0  0  0
  2  1  2  0
  3  1  1  0
  4  1  1  0
  5  1  1  0
  6  5  1  0
  7  6  1  0
  8  4  1  0
  8  7  1  0
  9  6  1  0
 10  9  1  0
 11 10  1  0
 12 11  1  0
 13 12  1  0
 14 12  1  0
 15 14  1  0
 16 15  1  0
 17 13  2  0
 17 16  1  0
 18 17  1  0
M  END
>  <ID>  (1) 
conformer_0

$$$$
