
     RDKit          3D

 19 20  0  0  0  0  0  0  0  0999 V2000
   25.7632  -23.9731   -9.1921 O   0  0  0  0  0  1  0  0  0  0  0  0
   24.5632  -23.1731   -9.3921 P   0  0  0  0  0  4  0  0  0  0  0  0
   23.3632  -23.9731   -9.0921 O   0  0  0  0  0  0  0  0  0  0  0  0
   24.6632  -21.7731   -8.8921 O   0  0  0  0  0  0  0  0  0  0  0  0
   24.3632  -22.7731  -10.7921 O   0  0  0  0  0  0  0  0  0  0  0  0
   25.6632  -20.9731   -9.5921 C   0  0  0  0  0  0  0  0  0  0  0  0
   25.5632  -20.7731  -10.9921 C   0  0  0  0  0  0  0  0  0  0  0  0
   24.4632  -21.5731  -11.4921 C   0  0  0  0  0  0  0  0  0  0  0  0
   24.0632  -21.2731  -12.8921 C   0  0  0  0  0  0  0  0  0  0  0  0
   25.0632  -20.4731  -13.5921 C   0  0  0  0  0  0  0  0  0  0  0  0
   25.8632  -21.1731  -14.4921 N   0  0  0  0  0  0  0  0  0  0  0  0
   26.4632  -20.3731  -15.4921 C   0  0  0  0  0  0  0  0  0  0  0  0
   25.1632  -22.2731  -14.9921 C   0  0  0  0  0  0  0  0  0  0  0  0
   27.6632  -19.8731  -15.3921 N   0  0  0  0  0  0  0  0  0  0  0  0
   25.5632  -22.5731  -16.1921 N   0  0  0  0  0  0  0  0  0  0  0  0
   26.2632  -21.3731  -16.6921 C   0  0  0  0  0  0  0  0  0  0  0  0
   26.9632  -22.3731  -16.1921 N   0  0  0  0  0  0  0  0  0  0  0  0
   28.3632  -18.8731  -14.8921 C   0  0  0  0  0  0  0  0  0  0  0  0
   28.2632  -18.4731  -13.4921 C   0  0  0  0  0  0  0  0  0  0  0  0
  2  1  2  0
  3  2  1  0
  4  2  1  0
  5  2  1  0
  6  4  1  0
  7  6  1  0
  8  5  1  0
  8  7  1  0
  9  8  1  0
 10  9  1  0
 11 10  1  0
 12 11  1  0
 13 11  1  0
 14 12  1  0
 15 13  1  0
 16 12  2  0
 16 15  1  0
 17 16  1  0
 18 14  1  0
 19 18  1  0
M  END
>  <ID>  (1) 
conformer_0

$$$$
