
     RDKit          3D

 15 15  0  0  0  0  0  0  0  0999 V2000
   25.6616  -23.8296   -9.5261 O   0  0  0  0  0  1  0  0  0  0  0  0
   24.3616  -23.1296   -9.6261 P   0  0  0  0  0  4  0  0  0  0  0  0
   23.2616  -24.0296   -9.3261 O   0  0  0  0  0  0  0  0  0  0  0  0
   24.4616  -22.0296   -8.6261 O   0  0  0  0  0  0  0  0  0  0  0  0
   25.7616  -21.3296   -8.4261 C   0  0  0  0  0  0  0  0  0  0  0  0
   24.2616  -22.4296  -10.9261 O   0  0  0  0  0  0  0  0  0  0  0  0
   25.8616  -19.9296   -8.1261 C   0  0  0  0  0  0  0  0  0  0  0  0
   24.7616  -18.9296   -8.3261 C   0  0  0  0  0  0  0  0  0  0  0  0
   26.6616  -19.6296   -6.9261 O   0  0  0  0  0  0  0  0  0  0  0  0
   26.2616  -18.3296   -6.4261 C   0  0  0  0  0  0  0  0  0  0  0  0
   25.1616  -17.8296   -7.4261 C   0  0  0  0  0  0  0  0  0  0  0  0
   23.4616  -22.8296  -12.0261 C   0  0  0  0  0  0  0  0  0  0  0  0
   22.9616  -24.2296  -12.0261 C   0  0  0  0  0  0  0  0  0  0  0  0
   21.7616  -24.3296  -11.3261 O   0  0  0  0  0  0  0  0  0  0  0  0
   20.5616  -25.0296  -11.7261 C   0  0  0  0  0  0  0  0  0  0  0  0
  2  1  2  0
  3  2  1  0
  4  2  1  0
  5  4  1  0
  6  2  1  0
  7  5  1  0
  8  7  1  0
  9  7  1  0
 10  9  1  0
 11  8  1  0
 11 10  1  0
 12  6  1  0
 13 12  1  0
 14 13  1  0
 15 14  1  0
M  END
>  <ID>  (1) 
conformer_0

$$$$
