
     RDKit          3D

 12 12  0  0  0  0  0  0  0  0999 V2000
   25.6616  -23.8296   -9.5261 O   0  0  0  0  0  1  0  0  0  0  0  0
   24.3616  -23.1296   -9.6261 P   0  0  0  0  0  4  0  0  0  0  0  0
   23.2616  -24.0296   -9.3261 O   0  0  0  0  0  0  0  0  0  0  0  0
   24.4616  -22.0296   -8.6261 O   0  0  0  0  0  0  0  0  0  0  0  0
   25.7616  -21.3296   -8.6261 C   0  0  0  0  0  0  0  0  0  0  0  0
   26.0616  -21.0296  -10.0261 C   0  0  0  0  0  0  0  0  0  0  0  0
   24.0616  -22.3296  -10.8261 O   0  0  0  0  0  0  0  0  0  0  0  0
   24.9616  -21.1296  -10.9261 C   0  0  0  0  0  0  0  0  0  0  0  0
   24.8616  -20.3296  -12.1261 C   0  0  0  0  0  0  0  0  0  0  0  0
   25.7616  -19.2296  -11.7261 C   0  0  0  0  0  0  0  0  0  0  0  0
   26.7616  -18.8296  -12.5261 O   0  0  0  0  0  0  0  0  0  0  0  0
   25.0616  -17.9296  -11.6261 N   0  0  0  0  0  0  0  0  0  0  0  0
  2  1  2  0
  3  2  1  0
  4  2  1  0
  5  4  1  0
  6  5  1  0
  7  2  1  0
  8  6  1  0
  8  7  1  0
  9  8  1  0
 10  9  1  0
 11 10  1  0
 12 10  1  0
M  END
>  <ID>  (1) 
conformer_0

$$$$
