
     RDKit          3D

 17 17  0  0  0  0  0  0  0  0999 V2000
   25.4117  -23.9288   -9.7321 O   0  0  0  0  0  1  0  0  0  0  0  0
   24.0117  -23.4288   -9.9321 P   0  0  0  0  0  4  0  0  0  0  0  0
   23.0117  -23.9288   -8.9321 O   0  0  0  0  0  0  0  0  0  0  0  0
   23.6117  -24.3288  -11.0321 O   0  0  0  0  0  0  0  0  0  0  0  0
   23.8117  -22.0288  -10.3321 O   0  0  0  0  0  0  0  0  0  0  0  0
   23.3117  -20.9288   -9.6321 C   0  0  0  0  0  0  0  0  0  0  0  0
   24.0117  -19.7288   -9.2321 C   0  0  0  0  0  0  0  0  0  0  0  0
   23.7117  -19.3288   -7.8321 C   0  0  0  0  0  0  0  0  0  0  0  0
   25.4117  -19.8288   -9.6321 O   0  0  0  0  0  0  0  0  0  0  0  0
   26.1117  -20.0288   -8.3321 C   0  0  0  0  0  0  0  0  0  0  0  0
   24.7117  -18.5288   -7.1321 O   0  0  0  0  0  0  0  0  0  0  0  0
   27.4117  -20.6288   -8.1321 C   0  0  0  0  0  0  0  0  0  0  0  0
   27.7117  -21.8288   -7.4321 O   0  0  0  0  0  0  0  0  0  0  0  0
   25.3117  -21.0288   -7.6321 O   0  0  0  0  0  0  0  0  0  0  0  0
   24.0117  -20.7288   -7.1321 C   0  0  0  0  0  0  0  0  0  0  0  0
   23.3117  -20.7288   -5.8321 C   0  0  0  0  0  0  0  0  0  0  0  0
   22.7117  -19.4288   -5.6321 O   0  0  0  0  0  0  0  0  0  0  0  0
  2  1  2  0
  3  2  1  0
  4  2  1  0
  5  2  1  0
  6  5  1  0
  7  6  1  0
  8  7  1  0
  9  7  1  0
 10  9  1  0
 11  8  1  0
 12 10  1  0
 13 12  1  0
 14 10  1  0
 15  8  1  0
 15 14  1  0
 16 15  1  0
 17 16  1  0
M  END
>  <ID>  (1) 
conformer_0

$$$$
