
     RDKit          3D

 13 14  0  0  0  0  0  0  0  0999 V2000
   25.5243  -23.8609   -9.7183 O   0  0  0  0  0  1  0  0  0  0  0  0
   24.3243  -23.1609   -9.3183 P   0  0  0  0  0  4  0  0  0  0  0  0
   23.1243  -23.9609   -8.9183 O   0  0  0  0  0  0  0  0  0  0  0  0
   24.5243  -22.0609   -8.3183 O   0  0  0  0  0  0  0  0  0  0  0  0
   23.7243  -22.3609  -10.4183 O   0  0  0  0  0  0  0  0  0  0  0  0
   23.5243  -20.9609  -10.2183 C   0  0  0  0  0  0  0  0  0  0  0  0
   23.9243  -20.7609   -8.7183 C   0  0  0  0  0  0  0  0  0  0  0  0
   24.4243  -19.4609   -8.4183 C   0  0  0  0  0  0  0  0  0  0  0  0
   24.4243  -18.6609   -9.6183 C   0  0  0  0  0  0  0  0  0  0  0  0
   24.5243  -17.2609   -9.3183 C   0  0  0  0  0  0  0  0  0  0  0  0
   24.7243  -16.2609  -10.2183 N   0  0  0  0  0  0  0  0  0  0  0  0
   25.0243  -17.0609   -8.1183 N   0  0  0  0  0  0  0  0  0  0  0  0
   25.2243  -18.3609   -7.4183 N   0  0  0  0  0  0  0  0  0  0  0  0
  2  1  2  0
  3  2  1  0
  4  2  1  0
  5  2  1  0
  6  5  1  0
  7  4  1  0
  7  6  1  0
  8  7  1  0
  9  8  1  0
 10  9  1  0
 11 10  1  0
 12 10  1  0
 13  8  1  0
 13 12  1  0
M  END
>  <ID>  (1) 
conformer_0

$$$$
