
     RDKit          3D

 20 22  0  0  0  0  0  0  0  0999 V2000
   25.7632  -23.9731   -9.1921 O   0  0  0  0  0  1  0  0  0  0  0  0
   24.5632  -23.1731   -9.3921 P   0  0  0  0  0  4  0  0  0  0  0  0
   23.3632  -23.9731   -9.0921 O   0  0  0  0  0  0  0  0  0  0  0  0
   24.6632  -21.7731   -8.8921 O   0  0  0  0  0  0  0  0  0  0  0  0
   24.3632  -22.7731  -10.7921 O   0  0  0  0  0  0  0  0  0  0  0  0
   25.7632  -21.0731   -9.4921 C   0  0  0  0  0  0  0  0  0  0  0  0
   25.6632  -20.5731  -10.8921 C   0  0  0  0  0  0  0  0  0  0  0  0
   24.6632  -21.5731  -11.4921 C   0  0  0  0  0  0  0  0  0  0  0  0
   24.6632  -21.2731  -12.8921 C   0  0  0  0  0  0  0  0  0  0  0  0
   24.8632  -21.4731  -14.2921 N   0  0  0  0  0  0  0  0  0  0  0  0
   24.8632  -22.3731  -15.1921 C   0  0  0  0  0  0  0  0  0  0  0  0
   24.1632  -23.4731  -15.2921 N   0  0  0  0  0  0  0  0  0  0  0  0
   25.9632  -22.1731  -15.8921 C   0  0  0  0  0  0  0  0  0  0  0  0
   26.4632  -20.8731  -15.8921 N   0  0  0  0  0  0  0  0  0  0  0  0
   25.7632  -20.3731  -14.7921 C   0  0  0  0  0  0  0  0  0  0  0  0
   23.9632  -24.1731  -16.3921 C   0  0  0  0  0  0  0  0  0  0  0  0
   22.8632  -24.5731  -16.9921 N   0  0  0  0  0  0  0  0  0  0  0  0
   24.9632  -23.7731  -17.1921 N   0  0  0  0  0  0  0  0  0  0  0  0
   25.8632  -22.8731  -17.1921 C   0  0  0  0  0  0  0  0  0  0  0  0
   26.8632  -22.7731  -18.1921 N   0  0  0  0  0  0  0  0  0  0  0  0
  2  1  2  0
  3  2  1  0
  4  2  1  0
  5  2  1  0
  6  4  1  0
  7  6  1  0
  8  5  1  0
  8  7  1  0
  9  8  1  0
 10  9  1  0
 11 10  1  0
 12 11  2  0
 13 11  1  0
 14 13  1  0
 15 10  1  0
 15 14  2  0
 16 12  1  0
 17 16  1  0
 18 16  2  0
 19 13  2  0
 19 18  1  0
 20 19  1  0
M  END
>  <ID>  (1) 
conformer_0

$$$$
