
     RDKit          3D

 10  9  0  0  0  0  0  0  0  0999 V2000
   22.7620  -19.6021   -8.7440 C   0  0  0  0  0  0  0  0  0  0  0  0
   23.4620  -20.7021   -9.4440 C   0  0  0  0  0  0  0  0  0  0  0  0
   23.7620  -21.8021   -8.5440 O   0  0  0  0  0  0  0  0  0  0  0  0
   24.3620  -23.0021   -9.0440 P   0  0  0  0  0  0  0  0  0  0  0  0
   25.4620  -23.8021   -9.4440 O   0  0  0  0  0  1  0  0  0  0  0  0
   23.2620  -24.0021   -9.0440 O   0  0  0  0  0  1  0  0  0  0  0  0
   22.1620  -18.5021   -9.4440 C   0  0  0  0  0  0  0  0  0  0  0  0
   21.5620  -17.5021   -8.6440 C   0  0  0  0  0  0  0  0  0  0  0  0
   21.5620  -16.2021   -8.9440 N   0  0  0  0  0  0  0  0  0  0  0  0
   21.6620  -17.8020   -7.2440 C   0  0  0  0  0  0  0  0  0  0  0  0
  2  1  1  0
  3  2  1  0
  4  3  1  0
  5  4  1  0
  6  4  1  0
  7  1  2  3
  8  7  1  0
  9  8  1  0
 10  8  1  0
M  END
>  <ID>  (1) 
conformer_0

$$$$
