
     RDKit          3D

  7  7  0  0  0  0  0  0  0  0999 V2000
   23.1522  -23.4501  -10.1283 P   0  0  0  0  0  4  0  0  0  0  0  0
   24.5522  -23.9501  -10.1283 O   0  0  0  0  0  0  0  0  0  0  0  0
   22.6522  -23.9501   -8.8283 O   0  0  0  0  0  1  0  0  0  0  0  0
   22.9522  -22.1501  -10.7283 O   0  0  0  0  0  0  0  0  0  0  0  0
   24.7522  -22.9501   -9.2283 C   0  0  0  0  0  0  0  0  0  0  0  0
   25.1522  -21.6501   -9.8283 C   0  0  0  0  0  0  0  0  0  0  0  0
   24.3522  -21.4501  -11.0283 C   0  0  0  0  0  0  0  0  0  0  0  0
  3  1  2  0
  4  1  1  0
  5  1  1  0
  5  2  1  0
  6  5  1  0
  7  4  1  0
  7  6  1  0
M  END
>  <ID>  (1) 
conformer_0

$$$$
