
     RDKit          3D

 15 14  0  0  0  0  0  0  0  0999 V2000
   25.4117  -23.9288   -9.7321 O   0  0  0  0  0  1  0  0  0  0  0  0
   24.0117  -23.4288   -9.9321 P   0  0  0  0  0  4  0  0  0  0  0  0
   23.0117  -23.9288   -8.9321 O   0  0  0  0  0  0  0  0  0  0  0  0
   23.6117  -24.3288  -11.0321 O   0  0  0  0  0  0  0  0  0  0  0  0
   23.8117  -22.0288  -10.3321 O   0  0  0  0  0  0  0  0  0  0  0  0
   22.9117  -21.6288  -11.3321 C   0  0  0  0  0  0  0  0  0  0  0  0
   22.9117  -20.3288  -11.9321 C   0  0  0  0  0  0  0  0  0  0  0  0
   22.0117  -19.3288  -11.3321 O   0  0  0  0  0  0  0  0  0  0  0  0
   21.6117  -18.3288  -12.0321 C   0  0  0  0  0  0  0  0  0  0  0  0
   22.9117  -20.1288  -13.3321 C   0  0  0  0  0  0  0  0  0  0  0  0
   22.8117  -18.9288  -14.0321 O   0  0  0  0  0  0  0  0  0  0  0  0
   22.8117  -23.6288   -7.5321 P   0  0  0  0  0  4  0  0  0  0  0  0
   23.1117  -24.7288   -6.6321 O   0  0  0  0  0  0  0  0  0  0  0  0
   22.2117  -22.4288   -7.1321 O   0  0  0  0  0  1  0  0  0  0  0  0
   24.2117  -23.9288   -7.1321 O   0  0  0  0  0  0  0  0  0  0  0  0
  2  1  2  0
  3  2  1  0
  4  2  1  0
  5  2  1  0
  6  5  1  0
  7  6  1  0
  8  7  1  0
  9  8  1  0
 10  7  1  0
 11 10  1  0
 12  3  1  0
 13 12  1  0
 14 12  2  0
 15 12  1  0
M  END
>  <ID>  (1) 
conformer_0

$$$$
