
     RDKit          3D

 18 20  0  0  0  0  0  0  0  0999 V2000
   25.6201  -23.8233   -9.6549 O   0  0  0  0  0  1  0  0  0  0  0  0
   24.4201  -23.0233   -9.4549 P   0  0  0  0  0  4  0  0  0  0  0  0
   23.3201  -23.9233   -9.0549 O   0  0  0  0  0  0  0  0  0  0  0  0
   24.5201  -22.0233   -8.3549 O   0  0  0  0  0  0  0  0  0  0  0  0
   24.0201  -22.4233  -10.7549 O   0  0  0  0  0  0  0  0  0  0  0  0
   25.7201  -21.2233   -8.6549 C   0  0  0  0  0  0  0  0  0  0  0  0
   25.9201  -20.7233  -10.0549 C   0  0  0  0  0  0  0  0  0  0  0  0
   24.7201  -21.1233  -10.8549 C   0  0  0  0  0  0  0  0  0  0  0  0
   24.9201  -20.6233  -12.2549 C   0  0  0  0  0  0  0  0  0  0  0  0
   25.6201  -19.3233  -12.0549 C   0  0  0  0  0  0  0  0  0  0  0  0
   25.3202  -18.7233  -13.3549 C   0  0  0  0  0  0  0  0  0  0  0  0
   25.3202  -19.6233  -14.4549 C   0  0  0  0  0  0  0  0  0  0  0  0
   24.1201  -19.1233  -14.0549 O   0  0  0  0  0  0  0  0  0  0  0  0
   26.3201  -20.6233  -12.4549 O   0  0  0  0  0  0  0  0  0  0  0  0
   25.9202  -19.3233  -15.7549 C   0  0  0  0  0  0  0  0  0  0  0  0
   25.2201  -19.7233  -16.9549 O   0  0  0  0  0  0  0  0  0  0  0  0
   25.9201  -20.1233   -7.6549 C   0  0  0  0  0  0  0  0  0  0  0  0
   25.9201  -20.5233   -6.4549 O   0  0  0  0  0  0  0  0  0  0  0  0
  2  1  2  0
  3  2  1  0
  4  2  1  0
  5  2  1  0
  6  4  1  0
  7  6  1  0
  8  5  1  0
  8  7  1  0
  9  8  1  0
 10  9  1  0
 11 10  1  0
 12 11  1  0
 13 11  1  0
 13 12  1  0
 14  9  1  0
 14 10  1  0
 15 12  1  0
 16 15  1  0
 17  6  1  0
 18 17  1  0
M  END
>  <ID>  (1) 
conformer_0

$$$$
