
     RDKit          3D

 10 10  0  0  0  0  0  0  0  0999 V2000
   25.7054  -24.0687   -9.2745 O   0  0  0  0  0  1  0  0  0  0  0  0
   24.6054  -23.0687   -9.4745 P   0  0  0  0  0  4  0  0  0  0  0  0
   23.3054  -23.7687   -9.2745 O   0  0  0  0  0  0  0  0  0  0  0  0
   24.5054  -21.9687   -8.4745 O   0  0  0  0  0  0  0  0  0  0  0  0
   24.8054  -22.5687  -10.8745 O   0  0  0  0  0  0  0  0  0  0  0  0
   23.2054  -21.7687   -7.7745 C   0  0  0  0  0  0  0  0  0  0  0  0
   22.5054  -23.1687   -8.1745 C   0  0  0  0  0  0  0  0  0  0  0  0
   21.1054  -22.8687   -8.4745 C   0  0  0  0  0  0  0  0  0  0  0  0
   21.1054  -21.5687   -9.0745 O   0  0  0  0  0  0  0  0  0  0  0  0
   20.1054  -20.7687   -9.5745 C   0  0  0  0  0  0  0  0  0  0  0  0
  2  1  2  0
  3  2  1  0
  4  2  1  0
  5  2  1  0
  6  4  1  0
  7  3  1  0
  7  6  1  0
  8  7  1  0
  9  8  1  0
 10  9  1  0
M  END
>  <ID>  (1) 
conformer_0

$$$$
