
     RDKit          3D

 13 14  0  0  0  0  0  0  0  0999 V2000
   24.5163  -23.0798   -9.5279 P   0  0  0  0  0  4  0  0  0  0  0  0
   25.7163  -23.8798   -9.6279 O   0  0  0  0  0  1  0  0  0  0  0  0
   23.4163  -23.8798   -8.9279 O   0  0  0  0  0  0  0  0  0  0  0  0
   24.7163  -21.7798   -8.8279 O   0  0  0  0  0  0  0  0  0  0  0  0
   24.0163  -22.5798  -10.8279 O   0  0  0  0  0  0  0  0  0  0  0  0
   25.7163  -20.9798   -9.5279 C   0  0  0  0  0  0  0  0  0  0  0  0
   25.3163  -20.6798  -10.9279 C   0  0  0  0  0  0  0  0  0  0  0  0
   23.9163  -21.2798  -11.3279 C   0  0  0  0  0  0  0  0  0  0  0  0
   26.1163  -20.9798  -12.0279 O   0  0  0  0  0  0  0  0  0  0  0  0
   26.8163  -20.0798  -12.9279 C   0  0  0  0  0  0  0  0  0  0  0  0
   23.7163  -20.8798  -12.7279 C   0  0  0  0  0  0  0  0  0  0  0  0
   24.5163  -19.8798  -13.3279 O   0  0  0  0  0  0  0  0  0  0  0  0
   25.7163  -20.1798  -14.0279 C   0  0  0  0  0  0  0  0  0  0  0  0
  2  1  2  0
  3  1  1  0
  4  1  1  0
  5  1  1  0
  6  4  1  0
  7  6  1  0
  8  5  1  0
  8  7  1  0
  9  7  1  0
 10  9  1  0
 11  8  1  0
 12 11  1  0
 13 10  1  0
 13 12  1  0
M  END
>  <ID>  (1) 
conformer_0

$$$$
