
     RDKit          3D

 18 19  0  0  0  0  0  0  0  0999 V2000
   25.6616  -23.8296   -9.5261 O   0  0  0  0  0  1  0  0  0  0  0  0
   24.3616  -23.1296   -9.6261 P   0  0  0  0  0  4  0  0  0  0  0  0
   23.2616  -24.0296   -9.3261 O   0  0  0  0  0  0  0  0  0  0  0  0
   24.4616  -22.0296   -8.6261 O   0  0  0  0  0  0  0  0  0  0  0  0
   25.7616  -21.3296   -8.4261 C   0  0  0  0  0  0  0  0  0  0  0  0
   24.2616  -22.4296  -10.9261 O   0  0  0  0  0  0  0  0  0  0  0  0
   25.8616  -19.9296   -8.1261 C   0  0  0  0  0  0  0  0  0  0  0  0
   24.7616  -18.9296   -8.3261 C   0  0  0  0  0  0  0  0  0  0  0  0
   26.6616  -19.6296   -6.9261 O   0  0  0  0  0  0  0  0  0  0  0  0
   26.2616  -18.3296   -6.4261 C   0  0  0  0  0  0  0  0  0  0  0  0
   24.8616  -17.9296   -7.2261 C   0  0  0  0  0  0  0  0  0  0  0  0
   23.6616  -23.0296  -12.1261 C   0  0  0  0  0  0  0  0  0  0  0  0
   23.7616  -22.3296  -13.4261 C   0  0  0  0  0  0  0  0  0  0  0  0
   24.7616  -21.2296  -13.3261 C   0  0  0  0  0  0  0  0  0  0  0  0
   25.7616  -21.2296  -14.4261 C   0  0  0  0  0  0  0  0  0  0  0  0
   24.0616  -23.0296  -14.6261 O   0  0  0  0  0  0  0  0  0  0  0  0
   25.1616  -22.3296  -15.3261 C   0  0  0  0  0  0  0  0  0  0  0  0
   25.2616  -22.2296  -16.6261 N   0  0  0  0  0  0  0  0  0  0  0  0
  2  1  2  0
  3  2  1  0
  4  2  1  0
  5  4  1  0
  6  2  1  0
  7  5  1  0
  8  7  1  0
  9  7  1  0
 10  9  1  0
 11  8  1  0
 11 10  1  0
 12  6  1  0
 13 12  1  0
 14 13  1  0
 15 14  2  0
 16 13  1  0
 17 15  1  0
 17 16  1  0
 18 17  2  0
M  END
>  <ID>  (1) 
conformer_0

$$$$
