
     RDKit          3D

 20 20  0  0  0  0  0  0  0  0999 V2000
   24.5163  -23.0798   -9.5279 P   0  0  0  0  0  4  0  0  0  0  0  0
   25.6163  -23.9798   -9.6279 O   0  0  0  0  0  1  0  0  0  0  0  0
   23.3163  -23.8798   -9.2279 O   0  0  0  0  0  0  0  0  0  0  0  0
   24.5163  -21.7798   -8.8279 O   0  0  0  0  0  0  0  0  0  0  0  0
   24.2163  -22.6798  -10.9279 O   0  0  0  0  0  0  0  0  0  0  0  0
   24.6163  -20.4798   -9.5279 C   0  0  0  0  0  0  0  0  0  0  0  0
   24.3163  -19.2798   -8.8279 C   0  0  0  0  0  0  0  0  0  0  0  0
   23.3163  -18.2798   -9.2279 C   0  0  0  0  0  0  0  0  0  0  0  0
   22.7163  -18.2798  -10.5279 O   0  0  0  0  0  0  0  0  0  0  0  0
   24.2163  -19.5798   -7.4279 O   0  0  0  0  0  0  0  0  0  0  0  0
   23.1163  -18.7798   -6.8279 C   0  0  0  0  0  0  0  0  0  0  0  0
   22.5163  -17.9798   -8.0279 C   0  0  0  0  0  0  0  0  0  0  0  0
   22.3163  -19.0798   -5.8279 N   0  0  0  0  0  0  0  0  0  0  0  0
   21.2163  -18.1798   -8.1279 O   0  0  0  0  0  0  0  0  0  0  0  0
   23.1163  -22.8798  -11.7279 C   0  0  0  0  0  0  0  0  0  0  0  0
   23.1163  -23.5798  -13.0279 C   0  0  0  0  0  0  0  0  0  0  0  0
   23.9163  -22.7799  -13.9279 O   0  0  0  0  0  0  0  0  0  0  0  0
   24.1163  -23.1798  -15.2279 C   0  0  0  0  0  0  0  0  0  0  0  0
   22.5163  -24.8798  -13.1279 C   0  0  0  0  0  0  0  0  0  0  0  0
   21.5163  -25.1798  -14.0279 O   0  0  0  0  0  0  0  0  0  0  0  0
  2  1  2  0
  3  1  1  0
  4  1  1  0
  5  1  1  0
  6  4  1  0
  7  6  1  0
  8  7  1  0
  9  8  1  0
 10  7  1  0
 11 10  1  0
 12  8  1  0
 12 11  1  0
 13 11  2  0
 14 12  1  0
 15  5  1  0
 16 15  1  0
 17 16  1  0
 18 17  1  0
 19 16  1  0
 20 19  1  0
M  END
>  <ID>  (1) 
conformer_0

$$$$
