
     RDKit          3D

 14 16  0  0  0  0  0  0  0  0999 V2000
   25.6616  -23.8296   -9.5261 O   0  0  0  0  0  1  0  0  0  0  0  0
   24.3616  -23.1296   -9.6261 P   0  0  0  0  0  4  0  0  0  0  0  0
   23.2616  -24.0296   -9.3261 O   0  0  0  0  0  0  0  0  0  0  0  0
   24.4616  -22.0296   -8.6261 O   0  0  0  0  0  0  0  0  0  0  0  0
   25.7616  -21.3296   -8.6261 C   0  0  0  0  0  0  0  0  0  0  0  0
   24.3616  -22.6296  -11.0261 O   0  0  0  0  0  0  0  0  0  0  0  0
   25.9616  -20.8296  -10.0261 C   0  0  0  0  0  0  0  0  0  0  0  0
   24.9616  -21.2296  -11.0261 C   0  0  0  0  0  0  0  0  0  0  0  0
   24.2616  -20.1296  -11.7261 C   0  0  0  0  0  0  0  0  0  0  0  0
   24.9616  -18.9296  -11.2261 C   0  0  0  0  0  0  0  0  0  0  0  0
   24.6616  -17.6296  -10.9261 N   0  0  0  0  0  0  0  0  0  0  0  0
   23.3616  -17.6296  -11.5261 C   0  0  0  0  0  0  0  0  0  0  0  0
   24.7616  -19.2296  -12.5261 N   0  0  0  0  0  0  0  0  0  0  0  0
   23.6616  -18.1296  -12.8261 C   0  0  0  0  0  0  0  0  0  0  0  0
  2  1  2  0
  3  2  1  0
  4  2  1  0
  5  4  1  0
  6  2  1  0
  7  5  1  0
  8  6  1  0
  8  7  1  0
  9  8  1  0
 10  9  1  0
 11 10  1  0
 12 11  1  0
 13  9  1  0
 13 10  1  0
 14 12  1  0
 14 13  1  0
M  END
>  <ID>  (1) 
conformer_0

$$$$
