
     RDKit          3D

 20 21  0  0  0  0  0  0  0  0999 V2000
   25.6642  -24.0547   -9.4711 O   0  0  0  0  0  1  0  0  0  0  0  0
   24.5642  -23.0547   -9.5711 P   0  0  0  0  0  4  0  0  0  0  0  0
   23.3642  -23.8547   -9.1711 O   0  0  0  0  0  0  0  0  0  0  0  0
   24.6642  -21.9547   -8.5711 O   0  0  0  0  0  0  0  0  0  0  0  0
   24.4642  -22.3547  -10.8711 O   0  0  0  0  0  0  0  0  0  0  0  0
   25.8642  -21.1547   -8.7711 C   0  0  0  0  0  0  0  0  0  0  0  0
   26.0642  -20.6547  -10.1711 C   0  0  0  0  0  0  0  0  0  0  0  0
   24.9642  -21.0547  -11.0711 C   0  0  0  0  0  0  0  0  0  0  0  0
   25.3642  -20.7547  -12.4711 C   0  0  0  0  0  0  0  0  0  0  0  0
   26.6642  -21.0547  -12.7711 O   0  0  0  0  0  0  0  0  0  0  0  0
   24.3642  -21.2547  -13.3711 C   0  0  0  0  0  0  0  0  0  0  0  0
   24.7642  -21.1547  -14.7711 O   0  0  0  0  0  0  0  0  0  0  0  0
   24.6642  -22.4547  -15.2711 C   0  0  0  0  0  0  0  0  0  0  0  0
   23.6642  -23.2547  -15.5711 N   0  0  0  0  0  0  0  0  0  0  0  0
   25.7642  -22.7547  -15.9711 N   0  0  0  0  0  2  0  0  0  0  0  0
   24.1642  -24.5547  -15.6711 C   0  0  0  0  0  0  0  0  0  0  0  0
   23.5642  -25.7547  -15.4711 N   0  0  0  0  0  0  0  0  0  0  0  0
   25.4642  -23.1547  -17.2711 C   0  0  0  0  0  0  0  0  0  0  0  0
   26.3642  -23.1547  -18.1711 N   0  0  0  0  0  0  0  0  0  0  0  0
   24.7642  -24.4547  -17.0711 C   0  0  0  0  0  0  0  0  0  0  0  0
  2  1  2  0
  3  2  1  0
  4  2  1  0
  5  2  1  0
  6  4  1  0
  7  6  1  0
  8  5  1  0
  8  7  1  0
  9  8  1  0
 10  9  1  0
 11  9  1  0
 12 11  1  0
 13 12  1  0
 14 13  2  0
 15 13  1  0
 16 14  1  0
 17 16  1  0
 18 15  1  0
 19 18  2  0
 20 16  1  0
 20 18  1  0
M  END
>  <ID>  (1) 
conformer_0

$$$$
