
     RDKit          3D

 19 21  0  0  0  0  0  0  0  0999 V2000
   25.6642  -24.0547   -9.4711 O   0  0  0  0  0  1  0  0  0  0  0  0
   24.5642  -23.0547   -9.5711 P   0  0  0  0  0  4  0  0  0  0  0  0
   23.3642  -23.8547   -9.1711 O   0  0  0  0  0  0  0  0  0  0  0  0
   24.6642  -21.9547   -8.5711 O   0  0  0  0  0  0  0  0  0  0  0  0
   24.4642  -22.3547  -10.8711 O   0  0  0  0  0  0  0  0  0  0  0  0
   25.2642  -20.7547   -9.0711 C   0  0  0  0  0  0  0  0  0  0  0  0
   25.8642  -20.5547  -10.3711 C   0  0  0  0  0  0  0  0  0  0  0  0
   24.6642  -21.0547  -11.2711 C   0  0  0  0  0  0  0  0  0  0  0  0
   25.0642  -20.9547  -12.6711 C   0  0  0  0  0  0  0  0  0  0  0  0
   26.4642  -21.2547  -12.8711 O   0  0  0  0  0  0  0  0  0  0  0  0
   24.3642  -21.9547  -13.4711 C   0  0  0  0  0  0  0  0  0  0  0  0
   24.6642  -21.9547  -14.6711 N   0  0  0  0  0  0  0  0  0  0  0  0
   24.4642  -22.8547  -15.6711 N   0  0  0  0  0  0  0  0  0  0  0  0
   23.6642  -23.6547  -14.8711 C   0  0  0  0  0  0  0  0  0  0  0  0
   22.4642  -22.9547  -14.6711 N   0  0  0  0  0  0  0  0  0  0  0  0
   23.5642  -21.1547  -14.3711 C   0  0  0  0  0  0  0  0  0  0  0  0
   22.5642  -21.6547  -15.1711 C   0  0  0  0  0  0  0  0  0  0  0  0
   23.5642  -25.0547  -15.1711 N   0  0  0  0  0  0  0  0  0  0  0  0
   21.3642  -20.9547  -15.4711 N   0  0  0  0  0  0  0  0  0  0  0  0
  2  1  2  0
  3  2  1  0
  4  2  1  0
  5  2  1  0
  6  4  1  0
  7  6  1  0
  8  5  1  0
  8  7  1  0
  9  8  1  0
 10  9  1  0
 11  9  1  0
 12 11  1  0
 13 12  1  0
 14 13  2  0
 15 14  1  0
 16 11  1  0
 16 12  1  0
 17 15  1  0
 17 16  1  0
 18 14  1  0
 19 17  1  0
M  END
>  <ID>  (1) 
conformer_0

$$$$
