
     RDKit          3D

 13 12  0  0  0  0  0  0  0  0999 V2000
   24.5163  -23.0798   -9.5279 P   0  0  0  0  0  4  0  0  0  0  0  0
   25.7163  -23.8798   -9.6279 O   0  0  0  0  0  1  0  0  0  0  0  0
   23.4163  -23.8798   -8.9279 O   0  0  0  0  0  0  0  0  0  0  0  0
   24.7163  -21.7798   -8.8279 O   0  0  0  0  0  0  0  0  0  0  0  0
   24.0163  -22.8798  -10.9279 O   0  0  0  0  0  0  0  0  0  0  0  0
   26.1163  -21.4798   -8.5279 C   0  0  0  0  0  0  0  0  0  0  0  0
   26.4163  -20.2798   -7.7279 C   0  0  0  0  0  0  0  0  0  0  0  0
   23.2163  -23.9798  -11.5279 C   0  0  0  0  0  0  0  0  0  0  0  0
   22.7163  -23.5798  -12.8279 C   0  0  0  0  0  0  0  0  0  0  0  0
   21.3163  -23.9798  -13.1279 C   0  0  0  0  0  0  0  0  0  0  0  0
   23.4163  -23.6798  -14.0279 O   0  0  0  0  0  0  0  0  0  0  0  0
   22.7163  -23.7798  -15.2279 C   0  0  0  0  0  0  0  0  0  0  0  0
   20.6163  -23.4798  -14.2279 O   0  0  0  0  0  0  0  0  0  0  0  0
  2  1  2  0
  3  1  1  0
  4  1  1  0
  5  1  1  0
  6  4  1  0
  7  6  1  0
  8  5  1  0
  9  8  1  0
 10  9  1  0
 11  9  1  0
 12 11  1  0
 13 10  1  0
M  END
>  <ID>  (1) 
conformer_0

$$$$
