
     RDKit          3D

 11 11  0  0  0  0  0  0  0  0999 V2000
   25.6744  -23.9076   -9.5204 O   0  0  0  0  0  1  0  0  0  0  0  0
   24.5744  -22.9076   -9.4204 P   0  0  0  0  0  4  0  0  0  0  0  0
   23.4744  -23.8076   -9.2204 O   0  0  0  0  0  0  0  0  0  0  0  0
   24.7744  -21.9076   -8.3204 O   0  0  0  0  0  0  0  0  0  0  0  0
   24.2744  -22.1076  -10.6204 O   0  0  0  0  0  0  0  0  0  0  0  0
   25.7744  -20.9076   -8.8204 C   0  0  0  0  0  0  0  0  0  0  0  0
   25.8744  -20.5076  -10.2204 C   0  0  0  0  0  0  0  0  0  0  0  0
   24.6744  -20.8076  -11.0204 C   0  0  0  0  0  0  0  0  0  0  0  0
   26.8744  -20.6076   -7.9204 C   0  0  0  0  0  0  0  0  0  0  0  0
   27.6744  -21.7076   -7.3204 O   0  0  0  0  0  0  0  0  0  0  0  0
   26.7744  -20.0076  -11.0204 O   0  0  0  0  0  0  0  0  0  0  0  0
  2  1  2  0
  3  2  1  0
  4  2  1  0
  5  2  1  0
  6  4  1  0
  7  6  1  0
  8  5  1  0
  8  7  1  0
  9  6  1  0
 10  9  1  0
 11  7  1  0
M  END
>  <ID>  (1) 
conformer_0

$$$$
