
     RDKit          3D

 11 11  0  0  0  0  0  0  0  0999 V2000
   25.7825  -23.7799   -9.3661 O   0  0  0  0  0  1  0  0  0  0  0  0
   24.4825  -23.0799   -9.5661 P   0  0  0  0  0  4  0  0  0  0  0  0
   23.3825  -23.8799   -8.9661 O   0  0  0  0  0  0  0  0  0  0  0  0
   24.1825  -21.6799   -9.1661 O   0  0  0  0  0  0  0  0  0  0  0  0
   24.0825  -23.0799  -10.9661 O   0  0  0  0  0  0  0  0  0  0  0  0
   23.9825  -20.6799  -10.2661 C   0  0  0  0  0  0  0  0  0  0  0  0
   24.9825  -20.7799  -11.3661 C   0  0  0  0  0  0  0  0  0  0  0  0
   24.2825  -21.2799  -12.5661 C   0  0  0  0  0  0  0  0  0  0  0  0
   23.5825  -22.4799  -12.0661 C   0  0  0  0  0  0  0  0  0  0  0  0
   25.0825  -21.6799  -13.7661 O   0  0  0  0  0  0  0  0  0  0  0  0
   25.2825  -20.7799  -14.7661 C   0  0  0  0  0  0  0  0  0  0  0  0
  2  1  2  0
  3  2  1  0
  4  2  1  0
  5  2  1  0
  6  4  1  0
  7  6  1  0
  8  7  1  0
  9  5  1  0
  9  8  1  0
 10  8  1  0
 11 10  1  0
M  END
>  <ID>  (1) 
conformer_0

$$$$
