
     RDKit          3D

 17 19  0  0  0  0  0  0  0  0999 V2000
   24.5163  -23.0798   -9.5279 P   0  0  0  0  0  4  0  0  0  0  0  0
   25.7163  -23.8798   -9.6279 O   0  0  0  0  0  1  0  0  0  0  0  0
   23.4163  -24.0798   -9.3279 O   0  0  0  0  0  0  0  0  0  0  0  0
   24.4163  -21.7798   -8.8279 O   0  0  0  0  0  0  0  0  0  0  0  0
   24.3163  -22.5798  -10.9279 O   0  0  0  0  0  0  0  0  0  0  0  0
   24.7163  -21.2798  -11.2279 C   0  0  0  0  0  0  0  0  0  0  0  0
   25.8163  -20.6798  -10.4279 C   0  0  0  0  0  0  0  0  0  0  0  0
   25.4163  -20.7798   -8.9279 C   0  0  0  0  0  0  0  0  0  0  0  0
   24.5163  -20.4798  -12.4279 C   0  0  0  0  0  0  0  0  0  0  0  0
   24.9163  -19.0798  -12.1279 C   0  0  0  0  0  0  0  0  0  0  0  0
   23.8163  -18.1798  -12.3279 N   0  0  0  0  0  0  0  0  0  0  0  0
   22.6163  -18.8799  -12.2279 N   0  0  0  0  0  0  0  0  0  0  0  0
   21.5163  -18.2799  -12.7279 C   0  0  0  0  0  0  0  0  0  0  0  0
   21.9163  -17.0798  -13.0279 N   0  0  0  0  0  0  0  0  0  0  0  0
   21.1163  -15.8798  -13.1279 C   0  0  0  0  0  0  0  0  0  0  0  0
   22.1163  -17.8798  -14.0279 C   0  0  0  0  0  0  0  0  0  0  0  0
   23.3163  -18.6798  -13.6279 C   0  0  0  0  0  0  0  0  0  0  0  0
  2  1  2  0
  3  1  1  0
  4  1  1  0
  5  1  1  0
  6  5  1  0
  7  6  1  0
  8  4  1  0
  8  7  1  0
  9  6  1  0
 10  9  1  0
 11 10  1  0
 13 12  1  0
 14 13  1  0
 15 14  1  0
 16 13  1  0
 16 14  1  0
 17 11  1  0
 17 12  1  0
 17 16  1  0
M  END
>  <ID>  (1) 
conformer_0

$$$$
