
     RDKit          3D

  8  8  0  0  0  0  0  0  0  0999 V2000
   25.5243  -23.8609   -9.7183 O   0  0  0  0  0  1  0  0  0  0  0  0
   24.3243  -23.1609   -9.3183 P   0  0  0  0  0  4  0  0  0  0  0  0
   23.2243  -23.9609   -8.7183 O   0  0  0  0  0  0  0  0  0  0  0  0
   24.5243  -21.8609   -8.6183 O   0  0  0  0  0  0  0  0  0  0  0  0
   23.9243  -22.5609  -10.6183 O   0  0  0  0  0  0  0  0  0  0  0  0
   25.7243  -21.1609   -9.1183 C   0  0  0  0  0  0  0  0  0  0  0  0
   25.7243  -20.9609  -10.5183 C   0  0  0  0  0  0  0  0  0  0  0  0
   24.5243  -21.4609  -11.2183 C   0  0  0  0  0  0  0  0  0  0  0  0
  2  1  2  0
  3  2  1  0
  4  2  1  0
  5  2  1  0
  6  4  1  0
  7  6  1  0
  8  5  1  0
  8  7  1  0
M  END
>  <ID>  (1) 
conformer_0

$$$$
