
     RDKit          3D

 17 19  0  0  0  0  0  0  0  0999 V2000
   25.6642  -24.0547   -9.4711 O   0  0  0  0  0  1  0  0  0  0  0  0
   24.5642  -23.0547   -9.5711 P   0  0  0  0  0  4  0  0  0  0  0  0
   23.3642  -23.8547   -9.1711 O   0  0  0  0  0  0  0  0  0  0  0  0
   24.6642  -21.9547   -8.5711 O   0  0  0  0  0  0  0  0  0  0  0  0
   24.4642  -22.3547  -10.8711 O   0  0  0  0  0  0  0  0  0  0  0  0
   25.8642  -21.1547   -8.7711 C   0  0  0  0  0  0  0  0  0  0  0  0
   26.0642  -20.6547  -10.1711 C   0  0  0  0  0  0  0  0  0  0  0  0
   24.9642  -20.9547  -10.9711 C   0  0  0  0  0  0  0  0  0  0  0  0
   24.7642  -20.1547  -12.1711 C   0  0  0  0  0  0  0  0  0  0  0  0
   23.7642  -19.1547  -12.5711 N   0  0  0  0  0  0  0  0  0  0  0  0
   24.1642  -18.2547  -13.3711 C   0  0  0  0  0  0  0  0  0  0  0  0
   23.4642  -17.5547  -14.3711 N   0  0  0  0  0  0  0  0  0  0  0  0
   24.0642  -16.3547  -14.7711 C   0  0  0  0  0  0  0  0  0  0  0  0
   25.3642  -18.6547  -13.9711 C   0  0  0  0  0  0  0  0  0  0  0  0
   25.7642  -17.9547  -15.0711 N   0  0  0  0  0  0  0  0  0  0  0  0
   25.4642  -16.6547  -15.1711 C   0  0  0  0  0  0  0  0  0  0  0  0
   25.2642  -17.5547  -12.9711 C   0  0  0  0  0  0  0  0  0  0  0  0
  2  1  2  0
  3  2  1  0
  4  2  1  0
  5  2  1  0
  6  4  1  0
  7  6  1  0
  8  5  1  0
  8  7  1  0
  9  8  1  0
 10  9  1  0
 11 10  1  0
 12 11  1  0
 13 12  1  0
 14 11  1  0
 15 14  1  0
 16 13  1  0
 16 15  1  0
 17 11  1  0
 17 14  1  0
M  END
>  <ID>  (1) 
conformer_0

$$$$
