
     RDKit          3D

 19 20  0  0  0  0  0  0  0  0999 V2000
   24.5163  -23.0798   -9.5279 P   0  0  0  0  0  4  0  0  0  0  0  0
   25.7163  -23.8798   -9.6279 O   0  0  0  0  0  1  0  0  0  0  0  0
   23.4163  -23.8798   -8.9279 O   0  0  0  0  0  0  0  0  0  0  0  0
   24.7163  -21.9798   -8.5279 O   0  0  0  0  0  0  0  0  0  0  0  0
   24.5163  -22.3798   -7.1279 C   0  0  0  0  0  0  0  0  0  0  0  0
   23.9163  -22.4798  -10.7279 O   0  0  0  0  0  0  0  0  0  0  0  0
   25.0163  -21.3798   -6.1279 C   0  0  0  0  0  0  0  0  0  0  0  0
   26.3163  -21.0798   -6.7279 O   0  0  0  0  0  0  0  0  0  0  0  0
   25.2163  -20.0798   -6.8279 C   0  0  0  0  0  0  0  0  0  0  0  0
   25.5163  -18.9798   -6.0279 C   0  0  0  0  0  0  0  0  0  0  0  0
   24.3163  -18.5798   -5.3279 O   0  0  0  0  0  0  0  0  0  0  0  0
   22.0163  -23.7798   -9.4279 C   0  0  0  0  0  0  0  0  0  0  0  0
   21.6163  -23.1798  -10.6279 C   0  0  0  0  0  0  0  0  0  0  0  0
   22.7163  -22.5798  -11.4279 C   0  0  0  0  0  0  0  0  0  0  0  0
   20.6163  -23.8798  -11.4279 O   0  0  0  0  0  0  0  0  0  0  0  0
   19.4163  -23.6798  -11.9279 C   0  0  0  0  0  0  0  0  0  0  0  0
   24.7163  -23.6798   -6.5279 C   0  0  0  0  0  0  0  0  0  0  0  0
   24.2163  -24.8798   -6.4279 N   0  0  0  0  0  0  0  0  0  0  0  0
   26.1163  -23.7798   -6.4279 O   0  0  0  0  0  0  0  0  0  0  0  0
  2  1  2  0
  3  1  1  0
  4  1  1  0
  5  4  1  0
  6  1  1  0
  7  5  1  0
  8  7  1  0
  9  7  1  0
  9  8  1  0
 10  9  1  0
 11 10  1  0
 12  3  1  0
 13 12  1  0
 14  6  1  0
 14 13  1  0
 15 13  1  0
 16 15  1  0
 17  5  1  0
 18 17  1  0
 19 17  2  0
M  END
>  <ID>  (1) 
conformer_0

$$$$
