
     RDKit          3D

 14 14  0  0  0  0  0  0  0  0999 V2000
   24.5163  -23.0798   -9.5279 P   0  0  0  0  0  4  0  0  0  0  0  0
   25.7163  -23.8798   -9.6279 O   0  0  0  0  0  1  0  0  0  0  0  0
   23.3163  -23.8798   -9.2279 O   0  0  0  0  0  0  0  0  0  0  0  0
   24.5163  -21.7798   -8.8279 O   0  0  0  0  0  0  0  0  0  0  0  0
   24.2163  -22.6798  -10.9279 O   0  0  0  0  0  0  0  0  0  0  0  0
   24.6163  -20.5798   -9.5279 C   0  0  0  0  0  0  0  0  0  0  0  0
   25.0163  -19.2798   -9.1279 C   0  0  0  0  0  0  0  0  0  0  0  0
   24.3163  -18.0798   -9.6279 C   0  0  0  0  0  0  0  0  0  0  0  0
   25.6163  -19.0798   -7.8279 O   0  0  0  0  0  0  0  0  0  0  0  0
   25.2163  -17.8798   -7.2279 C   0  0  0  0  0  0  0  0  0  0  0  0
   23.3163  -17.6798   -8.6279 O   0  0  0  0  0  0  0  0  0  0  0  0
   23.3163  -23.6798  -11.5279 C   0  0  0  0  0  0  0  0  0  0  0  0
   22.3163  -23.8798  -10.4279 C   0  0  0  0  0  0  0  0  0  0  0  0
   24.3163  -17.7798   -6.1279 O   0  0  0  0  0  0  0  0  0  0  0  0
  2  1  2  0
  3  1  1  0
  4  1  1  0
  5  1  1  0
  6  4  1  0
  7  6  1  0
  8  7  1  0
  9  7  1  0
 10  9  1  0
 11  8  1  0
 12  5  1  0
 13  3  1  0
 13 12  1  0
 14 10  1  0
M  END
>  <ID>  (1) 
conformer_0

$$$$
