
     RDKit          3D

 16 17  0  0  0  0  0  0  0  0999 V2000
   24.5163  -23.0798   -9.5279 P   0  0  0  0  0  4  0  0  0  0  0  0
   25.6163  -23.9798   -9.6279 O   0  0  0  0  0  1  0  0  0  0  0  0
   23.4163  -23.7798   -8.8279 O   0  0  0  0  0  0  0  0  0  0  0  0
   24.5163  -21.6798   -9.0279 O   0  0  0  0  0  0  0  0  0  0  0  0
   24.0163  -22.9798  -10.9279 O   0  0  0  0  0  0  0  0  0  0  0  0
   24.5163  -20.5798  -10.0279 C   0  0  0  0  0  0  0  0  0  0  0  0
   24.8163  -19.1798   -9.7279 C   0  0  0  0  0  0  0  0  0  0  0  0
   24.9163  -20.8798  -11.4279 C   0  0  0  0  0  0  0  0  0  0  0  0
   24.8163  -18.4798  -11.0279 C   0  0  0  0  0  0  0  0  0  0  0  0
   23.5163  -20.6798  -11.1279 C   0  0  0  0  0  0  0  0  0  0  0  0
   24.8163  -17.0798  -10.5279 O   0  0  0  0  0  0  0  0  0  0  0  0
   23.9163  -16.9798   -9.4279 C   0  0  0  0  0  0  0  0  0  0  0  0
   23.1163  -15.7798   -9.4279 C   0  0  0  0  0  0  0  0  0  0  0  0
   24.5163  -17.3798   -8.1279 C   0  0  0  0  0  0  0  0  0  0  0  0
   25.2163  -18.5798   -8.5279 O   0  0  0  0  0  0  0  0  0  0  0  0
   23.2163  -24.0798  -11.3279 C   0  0  0  0  0  0  0  0  0  0  0  0
  2  1  2  0
  3  1  1  0
  4  1  1  0
  5  1  1  0
  6  4  1  0
  7  6  1  0
  8  6  1  0
  9  7  1  0
 10  6  1  0
 10  8  1  0
 11  9  1  0
 12 11  1  0
 13 12  1  0
 14 12  1  0
 15  7  1  0
 15 14  1  0
 16  5  1  0
M  END
>  <ID>  (1) 
conformer_0

$$$$
