
     RDKit          3D

 11 10  0  0  0  0  0  0  0  0999 V2000
   25.6744  -23.9076   -9.5204 O   0  0  0  0  0  1  0  0  0  0  0  0
   24.3744  -23.2076   -9.6204 P   0  0  0  0  0  4  0  0  0  0  0  0
   23.2744  -24.0076   -9.0204 O   0  0  0  0  0  0  0  0  0  0  0  0
   24.3744  -21.9076   -8.9204 O   0  0  0  0  0  0  0  0  0  0  0  0
   24.0744  -23.0076  -11.0204 O   0  0  0  0  0  0  0  0  0  0  0  0
   25.6744  -21.2076   -8.9204 C   0  0  0  0  0  0  0  0  0  0  0  0
   26.3744  -20.9076   -7.7204 C   0  0  0  0  0  0  0  0  0  0  0  0
   25.4744  -21.3076   -6.6204 O   0  0  0  0  0  0  0  0  0  0  0  0
   25.3744  -20.6076   -5.4204 C   0  0  0  0  0  0  0  0  0  0  0  0
   24.6744  -21.3076   -4.3204 C   0  0  0  0  0  0  0  0  0  0  0  0
   23.2744  -20.9076   -4.2204 O   0  0  0  0  0  0  0  0  0  0  0  0
  2  1  2  0
  3  2  1  0
  4  2  1  0
  5  2  1  0
  6  4  1  0
  7  6  1  0
  8  7  1  0
  9  8  1  0
 10  9  1  0
 11 10  1  0
M  END
>  <ID>  (1) 
conformer_0

$$$$
