
     RDKit          3D

 25 26  0  0  0  0  0  0  0  0999 V2000
    2.8609  -12.4520   10.2869 C   0  0  0  0  0  0  0  0  0  0  0  0
    7.7348   -9.3614   14.2138 O   0  0  0  0  0  0  0  0  0  0  0  0
    0.1729   -7.0254    7.7482 O   0  0  0  0  0  0  0  0  0  0  0  0
    3.1878  -13.7028    9.8137 C   0  0  0  0  0  0  0  0  0  0  0  0
    4.2637   -6.6077    9.3343 O   0  0  0  0  0  0  0  0  0  0  0  0
    8.5294   -8.4386   12.4942 O   0  0  0  0  0  0  0  0  0  0  0  0
    2.4094  -13.4923   12.4142 N   0  0  0  0  0  0  0  0  0  0  0  0
    1.4333   -5.7351    9.2040 O   0  0  0  0  0  0  0  0  0  0  0  0
    2.9939  -14.8813   10.5593 C   0  0  0  0  0  0  0  0  0  0  0  0
    2.3628   -7.7742    8.3731 C   0  0  0  0  0  0  0  0  0  0  0  0
    1.8914   -9.1418    8.5809 C   0  0  0  0  0  0  0  0  0  0  0  0
    1.2061   -6.7473    8.4698 C   0  0  0  0  0  0  0  0  0  0  0  0
    2.5661  -12.3451   11.6325 C   0  0  0  0  0  0  0  0  0  0  0  0
    2.6584   -9.8265    9.6851 S   0  0  0  0  0  4  0  0  0  0  0  0
    6.6174   -8.2729   10.3162 O   0  0  0  0  0  0  0  0  0  0  0  0
    6.3371   -9.4190   12.3961 C   0  0  0  0  0  0  0  0  0  0  0  0
    4.5285   -8.8321   11.0046 O   0  0  0  0  0  0  0  0  0  0  0  0
    2.8013  -11.2754    9.3890 C   0  0  0  0  0  0  0  0  0  0  0  0
    2.7726  -11.5444    8.0638 O   0  0  0  0  0  0  0  0  0  0  0  0
    7.5899   -8.9726   13.0426 C   0  0  0  0  0  0  0  0  0  0  0  0
    0.8326   -9.6491    7.9720 O   0  0  0  0  0  0  0  0  0  0  0  0
    4.0146   -9.0365    9.6980 C   0  0  0  0  0  0  0  0  0  0  0  0
    3.7652   -7.8019    8.9379 C   0  0  0  0  0  0  0  0  0  0  0  0
    5.8793   -8.7631   11.1863 C   0  0  0  0  0  0  0  0  0  0  0  0
    2.5689  -14.7739   11.8580 C   0  0  0  0  0  0  0  0  0  0  0  0
  1  4  2  0
  1 13  1  0
  1 18  1  0
  2 20  2  0
  3 12  2  0
  4  9  1  0
  5 23  1  0
  6 20  1  0
  7 13  2  0
  7 25  1  0
  8 12  1  0
  9 25  2  0
 10 11  1  0
 10 12  1  0
 10 23  1  0
 11 14  1  0
 11 21  2  0
 14 18  1  0
 14 22  1  0
 15 24  2  0
 16 20  1  0
 16 24  1  0
 17 22  1  0
 17 24  1  0
 18 19  2  0
 22 23  1  0
M  END
>  <ID>  (1) 
conformer_0

$$$$
