
     RDKit          3D

 18 19  0  0  0  0  0  0  0  0999 V2000
    4.7657   -7.8988   10.3968 C   0  0  0  0  0  0  0  0  0  0  0  0
    1.2146  -11.1384    6.7618 C   0  0  0  0  0  0  0  0  0  0  0  0
    4.6469   -6.9184    9.5242 O   0  0  0  0  0  0  0  0  0  0  0  0
    2.5743   -9.0334    9.7074 C   0  0  0  0  0  0  0  0  0  0  0  0
    5.1857   -9.6557   12.4363 N   0  0  0  0  0  0  0  0  0  0  0  0
    2.3467  -10.1711    8.7599 C   0  0  0  0  0  0  0  0  0  0  0  0
    2.9874  -12.3718    7.8465 C   0  0  0  0  0  0  0  0  0  0  0  0
    1.3704  -10.1180    7.7168 C   0  0  0  0  0  0  0  0  0  0  0  0
    1.9893   -6.3830    9.3625 O   0  0  0  0  0  0  0  0  0  0  0  0
    3.2390  -10.7727   11.9334 O   0  0  0  0  0  0  0  0  0  0  0  0
    2.0112  -12.2926    6.7856 C   0  0  0  0  0  0  0  0  0  0  0  0
    3.1047  -11.3493    8.7885 C   0  0  0  0  0  0  0  0  0  0  0  0
    7.1084   -8.4223   13.0619 O   0  0  0  0  0  0  0  0  0  0  0  0
    6.0753   -8.6605   12.2260 C   0  0  0  0  0  0  0  0  0  0  0  0
    1.8682   -7.7558    9.1945 C   0  0  0  0  0  0  0  0  0  0  0  0
    5.9132   -7.8310   11.1569 C   0  0  0  0  0  0  0  0  0  0  0  0
    3.7889   -8.9214   10.5717 C   0  0  0  0  0  0  0  0  0  0  0  0
    4.0556   -9.8273   11.6665 C   0  0  0  0  0  0  0  0  0  0  0  0
  1  3  1  0
  1 16  2  0
  1 17  1  0
  2  8  2  0
  2 11  1  0
  4  6  1  0
  4 15  1  0
  4 17  1  0
  5 14  1  0
  5 18  1  0
  6  8  1  0
  6 12  2  0
  7 11  2  0
  7 12  1  0
  9 15  1  0
 10 18  2  0
 13 14  2  0
 14 16  1  0
 17 18  1  0
M  END
>  <ID>  (1) 
conformer_0

$$$$
