
     RDKit          3D

 26 28  0  0  0  0  0  0  0  0999 V2000
    1.6109   -9.9097    6.8234 C   0  0  0  0  0  0  0  0  0  0  0  0
    6.7769   -8.9739   13.3034 C   0  0  0  0  0  0  0  0  0  0  0  0
    3.4343  -11.4666    5.3777 C   0  0  0  0  0  0  0  0  0  0  0  0
    5.3846   -9.4620   12.9479 C   0  0  0  0  0  0  0  0  0  0  0  0
    2.1637  -10.8587    7.8233 C   0  0  0  0  0  0  0  0  0  0  0  0
    4.8072   -9.0047   11.8666 C   0  0  0  0  0  0  0  0  0  0  0  0
    2.8047  -10.1108   12.1292 C   0  0  0  0  0  0  0  0  0  0  0  0
    4.8212   -7.0767    9.2606 O   0  0  0  0  0  0  0  0  0  0  0  0
    4.5920  -10.3710   13.7014 C   0  0  0  0  0  0  0  0  0  0  0  0
    1.9747   -8.5252    7.3746 C   0  0  0  0  0  0  0  0  0  0  0  0
    3.4743   -7.4934    9.1501 C   0  0  0  0  0  0  0  0  0  0  0  0
    2.2051  -10.4614    9.1417 O   0  0  0  0  0  0  0  0  0  0  0  0
    1.0875   -8.3723    8.6606 C   0  0  0  0  0  0  0  0  0  0  0  0
    1.7386   -9.1827    9.7275 C   0  0  0  0  0  0  0  0  0  0  0  0
    3.4085   -8.4338    7.8588 C   0  0  0  0  0  0  0  0  0  0  0  0
    2.2060  -12.2588    7.4404 C   0  0  0  0  0  0  0  0  0  0  0  0
    5.0629  -10.8905   14.7694 O   0  0  0  0  0  0  0  0  0  0  0  0
    3.0319   -8.4917   10.2597 C   0  0  0  0  0  0  0  0  0  0  0  0
    3.3206  -10.6890   13.2549 N   0  0  0  0  0  0  0  0  0  0  0  0
    2.7970  -13.0235    8.3907 O   0  0  0  0  0  0  0  0  0  0  0  0
    2.5721   -6.4056    9.4567 O   0  0  0  0  0  0  0  0  0  0  0  0
    3.5525   -9.2237   11.4237 C   0  0  0  0  0  0  0  0  0  0  0  0
    0.1395   -7.4391    8.2522 O   0  0  0  0  0  0  0  0  0  0  0  0
    2.5289  -12.4532    6.0010 C   0  0  0  0  0  0  0  0  0  0  0  0
    7.0775   -7.8701   12.5320 O   0  0  0  0  0  0  0  0  0  0  0  0
    2.8032  -13.6947    5.7225 O   0  0  0  0  0  0  0  0  0  0  0  0
  1  5  1  0
  1 10  1  0
  2  4  1  0
  2 25  1  0
  3 24  1  0
  4  6  2  0
  4  9  1  0
  5 12  1  0
  5 16  1  0
  6 22  1  0
  7 19  1  0
  7 22  2  0
  8 11  1  0
  9 17  2  0
  9 19  1  0
 10 13  1  0
 10 15  1  0
 11 15  1  0
 11 18  1  0
 11 21  1  0
 12 14  1  0
 13 14  1  0
 13 23  1  0
 14 18  1  0
 16 20  1  0
 16 24  1  0
 18 22  1  0
 24 26  1  0
M  END
>  <ID>  (1) 
conformer_0

$$$$
