
     RDKit          3D

 18 17  0  0  0  0  0  0  0  0999 V2000
    3.5121  -10.7144   14.6024 O   0  0  0  0  0  0  0  0  0  0  0  0
    4.3407   -8.6597   10.7558 C   0  0  0  0  0  0  0  0  0  0  0  0
    0.4808   -7.5819    7.7058 O   0  0  0  0  0  0  0  0  0  0  0  0
    5.9075   -8.2081   11.0103 C   0  0  0  0  0  0  0  0  0  0  0  0
    2.0756   -9.4125    7.3729 C   0  0  0  0  0  0  0  0  0  0  0  0
    2.7562  -10.0181   12.4838 C   0  0  0  0  0  0  0  0  0  0  0  0
    1.4021  -10.3912    6.4332 C   0  0  0  0  0  0  0  0  0  0  0  0
    2.1431   -8.1553    9.5321 C   0  0  0  0  0  0  0  0  0  0  0  0
    2.7888  -12.2122   13.1659 O   0  0  0  0  0  0  0  0  0  0  0  0
    4.0709   -9.4142   12.1226 C   0  0  0  0  0  0  0  0  0  0  0  0
    3.0090   -9.3734    9.9406 O   0  0  0  0  0  0  0  0  0  0  0  0
    2.5046  -11.3358    5.9382 C   0  0  0  0  0  0  0  0  0  0  0  0
    1.1571   -8.6988    8.3593 C   0  0  0  0  0  0  0  0  0  0  0  0
    6.5290   -7.7743   10.0149 O   0  0  0  0  0  0  0  0  0  0  0  0
    3.5427   -7.2982   10.5441 C   0  0  0  0  0  0  0  0  0  0  0  0
    2.2989  -12.6154    6.6053 C   0  0  0  0  0  0  0  0  0  0  0  0
    2.9786  -11.0760   13.5553 C   0  0  0  0  0  0  0  0  0  0  0  0
    6.4120   -8.3290   12.1804 O   0  0  0  0  0  0  0  0  0  0  0  0
  1 17  2  0
  2  4  1  0
  2 10  1  0
  2 11  1  0
  2 15  1  0
  3 13  1  0
  4 14  2  0
  4 18  1  0
  5  7  1  0
  5 13  1  0
  6 10  1  0
  6 17  1  0
  7 12  1  0
  8 11  1  0
  8 13  1  0
  9 17  1  0
 12 16  1  0
M  END
>  <ID>  (1) 
conformer_0

$$$$
