
     RDKit          3D

 25 27  0  0  0  0  0  0  0  0999 V2000
    0.3114   -8.1955    7.5463 C   0  0  0  0  0  0  0  0  0  0  0  0
    1.3924  -11.6364    8.6908 N   0  0  0  0  0  0  0  0  0  0  0  0
    6.7795   -8.1361   12.6708 O   0  0  0  0  0  0  0  0  0  0  0  0
    4.3702   -6.2986   10.2754 O   0  0  0  0  0  0  0  0  0  0  0  0
    3.1610  -13.7207   11.9248 C   0  0  0  0  0  0  0  0  0  0  0  0
    2.3025  -11.7098    9.9892 C   0  0  0  0  0  0  0  0  0  0  0  0
    3.1718  -10.0770   11.4136 O   0  0  0  0  0  0  0  0  0  0  0  0
    2.1657   -9.4925    9.0629 C   0  0  0  0  0  0  0  0  0  0  0  0
    3.6203  -11.3307   12.0607 C   0  0  0  0  0  0  0  0  0  0  0  0
    5.1731  -11.4434   12.0886 C   0  0  0  0  0  0  0  0  0  0  0  0
    6.4108   -9.1314   11.7386 C   0  0  0  0  0  0  0  0  0  0  0  0
    5.2183  -10.8329   14.3711 O   0  0  0  0  0  0  0  0  0  0  0  0
    4.5835   -7.4426    9.6675 C   0  0  0  0  0  0  0  0  0  0  0  0
    0.2584   -9.5882    7.6555 N   0  0  0  0  0  0  0  0  0  0  0  0
    5.7847  -10.3266   13.0398 C   0  0  0  0  0  0  0  0  0  0  0  0
    1.3982   -7.5040    8.0144 N   0  0  0  0  0  0  0  0  0  0  0  0
    7.4954   -9.9702   11.2637 O   0  0  0  0  0  0  0  0  0  0  0  0
    1.2228  -10.2374    8.3939 C   0  0  0  0  0  0  0  0  0  0  0  0
    6.9838   -7.6743    9.7471 O   0  0  0  0  0  0  0  0  0  0  0  0
    2.9980  -12.3947   11.1666 C   0  0  0  0  0  0  0  0  0  0  0  0
    5.7507   -8.2112   10.3420 C   0  0  0  0  0  0  0  0  0  0  0  0
    2.4056   -8.1792    8.6089 C   0  0  0  0  0  0  0  0  0  0  0  0
   -0.6524   -7.5869    6.9444 O   0  0  0  0  0  0  0  0  0  0  0  0
    2.6876  -10.2807   10.1496 C   0  0  0  0  0  0  0  0  0  0  0  0
    3.7268   -7.6972    8.6294 O   0  0  0  0  0  0  0  0  0  0  0  0
  1 14  1  0
  1 16  1  0
  1 23  2  0
  2  6  1  0
  2 18  1  0
  3 11  1  0
  4 13  2  0
  5 20  1  0
  6 20  2  0
  6 24  1  0
  7  9  1  0
  7 24  1  0
  8 18  1  0
  8 22  1  0
  8 24  1  0
  9 10  1  0
  9 20  1  0
 10 15  1  0
 11 17  1  0
 11 21  1  0
 12 15  1  0
 13 21  1  0
 13 25  1  0
 14 18  2  0
 16 22  1  0
 19 21  1  0
 22 25  1  0
M  END
>  <ID>  (1) 
conformer_0

$$$$
