
     RDKit          3D

 28 28  0  0  0  0  0  0  0  0999 V2000
    2.5894   -6.4480    9.4555 O   0  0  0  0  0  0  0  0  0  0  0  0
    8.2773   -9.5965   13.1183 O   0  0  0  0  0  1  0  0  0  0  0  0
    0.3508   -7.2470    7.8780 O   0  0  0  0  0  0  0  0  0  0  0  0
    2.2858  -10.4217    7.9795 C   0  0  0  0  0  0  0  0  0  0  0  0
    1.6890  -11.7931   11.4278 C   0  0  0  0  0  0  0  0  0  0  0  0
    1.8583  -10.9557   10.5795 C   0  0  0  0  0  0  0  0  0  0  0  0
    7.0707   -7.8686   11.9471 O   0  0  0  0  0  1  0  0  0  0  0  0
    3.5519   -7.5025    9.6602 C   0  0  0  0  0  0  0  0  0  0  0  0
    6.5123   -7.0538    8.4018 O   0  0  0  0  0  1  0  0  0  0  0  0
    7.0000   -8.5294    8.0187 P   0  0  0  0  0  4  0  0  0  0  0  0
    3.5561   -8.5276    8.6602 C   0  0  0  0  0  0  0  0  0  0  0  0
    4.3594  -11.0917   11.5586 C   0  0  0  0  0  0  0  0  0  0  0  0
    5.9145   -9.8486    8.4496 C   0  0  0  0  0  0  0  0  0  0  0  0
    6.5178  -10.1367   11.3214 N   0  0  0  0  0  0  0  0  0  0  0  0
    5.8406   -9.2718   13.7495 C   0  0  0  0  0  0  0  0  0  0  0  0
    7.2128   -8.5577    6.4613 O   0  0  0  0  0  0  0  0  0  0  0  0
    1.4240  -10.9955    7.0883 O   0  0  0  0  0  0  0  0  0  0  0  0
    2.6041  -12.5971   12.1877 C   0  0  0  0  0  0  0  0  0  0  0  0
    3.9679  -12.0654   12.1424 C   0  0  0  0  0  0  0  0  0  0  0  0
    1.8053  -10.4582    9.3803 C   0  0  0  0  0  0  0  0  0  0  0  0
    0.7862   -8.5307    7.7884 C   0  0  0  0  0  0  0  0  0  0  0  0
    2.3065  -13.6334   12.9017 O   0  0  0  0  0  0  0  0  0  0  0  0
    2.3086   -8.7583    7.8359 C   0  0  0  0  0  0  0  0  0  0  0  0
    5.1411  -10.1760   11.0046 C   0  0  0  0  0  0  0  0  0  0  0  0
    8.4384   -8.7603    8.7746 O   0  0  0  0  0  0  0  0  0  0  0  0
    7.0509   -9.1211   12.5150 S   0  0  0  0  0  4  0  0  0  0  0  0
    3.7009  -10.7400    7.8393 O   0  0  0  0  0  0  0  0  0  0  0  0
    4.4423   -9.6803    8.4309 C   0  0  0  0  0  0  0  0  0  0  0  0
  1  8  1  0
  2 26  1  0
  3 21  1  0
  4 17  1  0
  4 20  1  0
  4 23  1  0
  4 27  1  0
  5  6  2  0
  5 18  1  0
  6 20  2  0
  7 26  1  0
  8 11  1  0
  9 10  2  0
 10 13  1  0
 10 16  1  0
 10 25  1  0
 11 23  1  0
 11 28  1  0
 12 19  2  0
 12 24  2  0
 13 28  1  0
 14 24  1  0
 14 26  1  0
 15 26  1  0
 18 19  1  0
 18 22  1  0
 21 23  1  0
 27 28  1  0
M  END
>  <ID>  (1) 
conformer_0

$$$$
