
     RDKit          3D

 21 22  0  0  0  0  0  0  0  0999 V2000
    0.3073   -7.4722    7.6112 O   0  0  0  0  0  0  0  0  0  0  0  0
    2.7651   -7.7178    9.5142 C   0  0  0  0  0  0  0  0  0  0  0  0
    3.9907  -10.4079   12.9101 C   0  0  0  0  0  0  0  0  0  0  0  0
    2.3971  -10.4784   10.5654 C   0  0  0  0  0  0  0  0  0  0  0  0
    2.6207  -10.1178   12.9633 C   0  0  0  0  0  0  0  0  0  0  0  0
    7.1728   -7.9229   12.8227 O   0  0  0  0  0  0  0  0  0  0  0  0
    4.5070  -10.7352   11.6578 C   0  0  0  0  0  0  0  0  0  0  0  0
    1.0880   -8.5358    7.6569 C   0  0  0  0  0  0  0  0  0  0  0  0
    7.5725   -9.0446   12.5165 C   0  0  0  0  0  0  0  0  0  0  0  0
    7.9101   -9.9070   13.4044 O   0  0  0  0  0  0  0  0  0  0  0  0
    3.9140  -12.3093    9.8062 Cl  0  0  0  0  0  0  0  0  0  0  0  0
    7.7092   -9.3547   11.0671 C   0  0  0  0  0  0  0  0  0  0  0  0
    2.0022   -8.7584    8.8076 C   0  0  0  0  0  0  0  0  0  0  0  0
    1.8354  -10.1459   11.7890 C   0  0  0  0  0  0  0  0  0  0  0  0
    0.6672   -9.9070    7.1919 C   0  0  0  0  0  0  0  0  0  0  0  0
    5.8089  -10.5730   11.4070 O   0  0  0  0  0  0  0  0  0  0  0  0
    1.8405  -10.1340    9.2653 C   0  0  0  0  0  0  0  0  0  0  0  0
    1.2979  -10.9004    8.1372 C   0  0  0  0  0  0  0  0  0  0  0  0
    2.2139   -6.3936    9.4071 O   0  0  0  0  0  0  0  0  0  0  0  0
    6.3491   -9.6959   10.4410 C   0  0  0  0  0  0  0  0  0  0  0  0
    3.6116  -11.1139   10.6848 C   0  0  0  0  0  0  0  0  0  0  0  0
  1  8  1  0
  2 13  1  0
  2 19  1  0
  3  5  1  0
  3  7  1  0
  4 14  1  0
  4 17  1  0
  4 21  1  0
  5 14  2  0
  6  9  2  0
  7 16  1  0
  7 21  1  0
  8 13  1  0
  8 15  1  0
  9 10  1  0
  9 12  1  0
 11 21  1  0
 12 20  1  0
 13 17  1  0
 15 18  1  0
 16 20  1  0
 17 18  1  0
M  END
>  <ID>  (1) 
conformer_0

$$$$
