
     RDKit          3D

 30 30  0  0  0  0  0  0  0  0999 V2000
    2.1410   -8.5974    8.3024 C   0  0  0  0  0  0  0  0  0  0  0  0
    4.6576  -12.3426    6.5440 N   0  0  0  0  0  0  0  0  0  0  0  0
    0.7311   -8.6495    7.7866 C   0  0  0  0  0  0  0  0  0  0  0  0
    3.1456  -10.6807    9.5629 O   0  0  0  0  0  0  0  0  0  0  0  0
    0.2182   -7.2906    7.8766 O   0  0  0  0  0  0  0  0  0  0  0  0
    2.1795  -11.8714    7.5521 C   0  0  0  0  0  0  0  0  0  0  0  0
    3.5164  -12.8156    5.8919 C   0  0  0  0  0  0  0  0  0  0  0  0
    3.3171  -11.4185    8.3231 C   0  0  0  0  0  0  0  0  0  0  0  0
    5.8867   -9.2495   11.4929 C   0  0  0  0  0  0  0  0  0  0  0  0
    3.5504  -13.4232    4.7923 O   0  0  0  0  0  0  0  0  0  0  0  0
    4.9489  -10.2854   10.8891 C   0  0  0  0  0  0  0  0  0  0  0  0
    3.8431  -11.5268   10.7606 C   0  0  0  0  0  0  0  0  0  0  0  0
    3.0579  -11.2326   13.0271 N   0  0  0  0  0  0  0  0  0  0  0  0
    6.1931   -9.2972   12.8577 O   0  0  0  0  0  0  0  0  0  0  0  0
    2.1611   -6.3696    9.4811 O   0  0  0  0  0  0  0  0  0  0  0  0
    7.9271  -10.3669   13.9018 O   0  0  0  0  0  1  0  0  0  0  0  0
    2.6655  -11.8688   11.8031 C   0  0  0  0  0  0  0  0  0  0  0  0
    2.3133  -12.5996    6.4315 N   0  0  0  0  0  0  0  0  0  0  0  0
    3.1709   -8.5863    7.3911 O   0  0  0  0  0  0  0  0  0  0  0  0
    2.6033  -13.2438   11.9220 O   0  0  0  0  0  0  0  0  0  0  0  0
    2.3476   -7.7324    9.5197 C   0  0  0  0  0  0  0  0  0  0  0  0
    7.5683   -9.2608   13.2926 P   0  0  0  0  0  0  0  0  0  0  0  0
    0.9916  -11.5950    7.9416 O   0  0  0  0  0  0  0  0  0  0  0  0
    3.7514   -8.1226   10.0448 C   0  0  0  0  0  0  0  0  0  0  0  0
    4.4315   -6.9397   10.3712 O   0  0  0  0  0  0  0  0  0  0  0  0
    4.0932   -9.4973    9.8015 O   0  0  0  0  0  0  0  0  0  0  0  0
    1.3877  -11.4107   11.3859 O   0  0  0  0  0  0  0  0  0  0  0  0
    6.6246   -8.4489   10.7515 O   0  0  0  0  0  0  0  0  0  0  0  0
    8.3986   -8.3182   12.9710 O   0  0  0  0  0  1  0  0  0  0  0  0
    4.5424  -11.6680    7.7569 C   0  0  0  0  0  0  0  0  0  0  0  0
  1  3  1  0
  1 19  1  0
  1 21  1  0
  2  7  1  0
  2 30  2  0
  3  5  1  0
  4  8  1  0
  4 12  1  0
  6  8  1  0
  6 18  1  0
  6 23  2  0
  7 10  2  0
  7 18  1  0
  8 30  1  0
  9 11  1  0
  9 14  1  0
  9 28  2  0
 11 12  1  0
 11 26  1  0
 12 17  1  0
 13 17  1  0
 14 22  1  0
 15 21  1  0
 16 22  1  0
 17 20  1  0
 17 27  1  0
 21 24  1  0
 22 29  1  0
 24 25  2  0
 24 26  1  0
M  END
>  <ID>  (1) 
conformer_0

$$$$
