
     RDKit          3D

 25 24  0  0  0  0  0  0  0  0999 V2000
    2.8299   -9.8880    9.7095 O   0  0  0  0  0  0  0  0  0  0  0  0
    0.9702   -7.6120    7.8196 O   0  0  0  0  0  0  0  0  0  0  0  0
    3.4108   -7.1814   10.3991 O   0  0  0  0  0  0  0  0  0  0  0  0
    4.8333   -7.0451    8.5174 C   0  0  0  0  0  0  0  0  0  0  0  0
    1.1392  -11.1641    8.5211 C   0  0  0  0  0  0  0  0  0  0  0  0
    3.3467  -10.8516   12.0445 O   0  0  0  0  0  0  0  0  0  0  0  0
    1.7708   -9.7553    8.6707 C   0  0  0  0  0  0  0  0  0  0  0  0
    4.2137   -9.3805    9.6773 C   0  0  0  0  0  0  0  0  0  0  0  0
    3.0189  -13.3978   11.8129 P   0  0  0  0  0  4  0  0  0  0  0  0
    6.4420   -7.9664   11.7866 O   0  0  0  0  0  0  0  0  0  0  0  0
    4.7390   -5.6895    8.7446 O   0  0  0  0  0  0  0  0  0  0  0  0
    6.4912   -9.9222    8.5390 O   0  0  0  0  0  0  0  0  0  0  0  0
    4.3900  -10.9966   14.1373 O   0  0  0  0  0  0  0  0  0  0  0  0
    3.8080  -11.7760   13.0954 C   0  0  0  0  0  0  0  0  0  0  0  0
    0.9027   -8.9610    7.6125 C   0  0  0  0  0  0  0  0  0  0  0  0
    2.8597  -14.4435   12.8292 O   0  0  0  0  0  1  0  0  0  0  0  0
    0.9072  -11.3268    7.1340 O   0  0  0  0  0  0  0  0  0  0  0  0
    6.5268   -9.0202   10.8896 C   0  0  0  0  0  0  0  0  0  0  0  0
    6.8068   -8.7309    9.3217 C   0  0  0  0  0  0  0  0  0  0  0  0
    7.6628   -9.7813   11.3388 O   0  0  0  0  0  0  0  0  0  0  0  0
    4.2949  -13.4790   10.9732 O   0  0  0  0  0  0  0  0  0  0  0  0
    1.7756  -12.9407   11.1529 O   0  0  0  0  0  0  0  0  0  0  0  0
    5.1899   -9.8978   10.8187 C   0  0  0  0  0  0  0  0  0  0  0  0
    4.2787   -9.6756   12.0764 C   0  0  0  0  0  0  0  0  0  0  0  0
    4.3087   -7.8536    9.6535 C   0  0  0  0  0  0  0  0  0  0  0  0
  1  7  1  0
  1  8  1  0
  2 15  1  0
  3 25  1  0
  4 11  1  0
  4 25  1  0
  5  7  1  0
  5 17  1  0
  6 14  1  0
  6 24  1  0
  7 15  1  0
  8 23  1  0
  8 25  1  0
  9 14  1  0
  9 16  2  0
  9 21  1  0
  9 22  1  0
 10 18  1  0
 12 19  1  0
 13 14  2  0
 18 19  1  0
 18 20  1  0
 18 23  1  0
 23 24  1  0
M  END
>  <ID>  (1) 
conformer_0

$$$$
