
     RDKit          3D

 23 23  0  0  0  0  0  0  0  0999 V2000
    7.6957   -8.0638   13.2358 O   0  0  0  0  0  0  0  0  0  0  0  0
    4.1399   -6.6348   10.4373 O   0  0  0  0  0  0  0  0  0  0  0  0
    2.9184  -12.4956    7.4669 C   0  0  0  0  0  0  0  0  0  0  0  0
    5.8630   -9.3793   13.7053 C   0  0  0  0  0  0  0  0  0  0  0  0
    4.5368   -9.8904   13.3363 C   0  0  0  0  0  0  0  0  0  0  0  0
    4.0731   -8.9667    9.4098 C   0  0  0  0  0  0  0  0  0  0  0  0
    3.2305  -10.2517    9.0282 C   0  0  0  0  0  0  0  0  0  0  0  0
    2.0989  -11.0576   12.5306 C   0  0  0  0  0  0  0  0  0  0  0  0
    2.4707  -11.0830   13.8459 C   0  0  0  0  0  0  0  0  0  0  0  0
    3.7282  -11.4245    8.1366 C   0  0  0  0  0  0  0  0  0  0  0  0
    3.1686  -13.7126    7.8535 O   0  0  0  0  0  0  0  0  0  0  0  0
    1.8794   -6.0429    9.3842 O   0  0  0  0  0  0  0  0  0  0  0  0
    2.0941  -12.3610    6.4801 O   0  0  0  0  0  0  0  0  0  0  0  0
    1.4367  -11.4834    9.9159 O   0  0  0  0  0  0  0  0  0  0  0  0
    3.3064   -7.8115   10.1220 C   0  0  0  0  0  0  0  0  0  0  0  0
    2.9022  -10.4925   11.5830 C   0  0  0  0  0  0  0  0  0  0  0  0
    6.6709   -8.8857   11.5125 O   0  0  0  0  0  0  0  0  0  0  0  0
    2.4769  -10.7435   10.1843 C   0  0  0  0  0  0  0  0  0  0  0  0
    1.8113   -7.9822    8.1643 O   0  0  0  0  0  0  0  0  0  0  0  0
    6.7649   -8.7586   12.7518 C   0  0  0  0  0  0  0  0  0  0  0  0
    3.6925  -10.5192   14.2433 N   0  0  0  0  0  0  0  0  0  0  0  0
    2.2327   -7.2476    9.1891 C   0  0  0  0  0  0  0  0  0  0  0  0
    4.0288   -9.8306   12.0730 C   0  0  0  0  0  0  0  0  0  0  0  0
  1 20  2  0
  2 15  1  0
  3 10  1  0
  3 11  2  0
  3 13  1  0
  4  5  1  0
  4 20  1  0
  5 21  1  0
  5 23  2  0
  6  7  1  0
  6 15  1  0
  7 10  1  0
  7 18  1  0
  8  9  2  0
  8 16  1  0
  9 21  1  0
 12 22  2  0
 14 18  1  0
 15 22  1  0
 16 18  2  3
 16 23  1  0
 17 20  1  0
 19 22  1  0
M  END
>  <ID>  (1) 
conformer_0

$$$$
