
     RDKit          3D

 25 24  0  0  0  0  0  0  0  0999 V2000
    3.9370   -8.9043   10.3100 C   0  0  0  0  0  0  0  0  0  0  0  0
    3.3450   -8.2699    8.9242 C   0  0  0  0  0  0  0  0  0  0  0  0
    4.3918   -6.3518    9.9492 O   0  0  0  0  0  0  0  0  0  0  0  0
    1.6515  -10.2252   10.8449 O   0  0  0  0  0  0  0  0  0  0  0  0
    1.5077   -9.8409    6.2956 C   0  0  0  0  0  0  0  0  0  0  0  0
    4.2055  -10.2542   10.0595 O   0  0  0  0  0  0  0  0  0  0  0  0
    4.9431  -13.1134   12.3260 O   0  0  0  0  0  0  0  0  0  0  0  0
    2.2313   -6.2322    9.4929 O   0  0  0  0  0  0  0  0  0  0  0  0
    2.5387  -10.8871    6.8008 C   0  0  0  0  0  0  0  0  0  0  0  0
    6.5132  -10.6272   12.9401 C   0  0  0  0  0  0  0  0  0  0  0  0
    2.0346   -9.1261    8.6007 C   0  0  0  0  0  0  0  0  0  0  0  0
    4.6028   -9.9325   11.3880 C   0  0  0  0  0  0  0  0  0  0  0  0
    0.4021   -7.9119    7.3579 O   0  0  0  0  0  0  0  0  0  0  0  0
    4.7095  -12.8131   10.1091 C   0  0  0  0  0  0  0  0  0  0  0  0
    7.7132   -8.6685   12.3838 O   0  0  0  0  0  0  0  0  0  0  0  0
    8.3795   -9.8347   14.0378 O   0  0  0  0  0  0  0  0  0  0  0  0
    1.3136   -9.2173    9.9133 C   0  0  0  0  0  0  0  0  0  0  0  0
    2.7008  -13.2411    7.1018 O   0  0  0  0  0  0  0  0  0  0  0  0
    0.9759   -9.1783    7.5333 C   0  0  0  0  0  0  0  0  0  0  0  0
    5.2077  -12.2949   11.3563 C   0  0  0  0  0  0  0  0  0  0  0  0
    1.8748  -12.2071    6.5401 C   0  0  0  0  0  0  0  0  0  0  0  0
    4.3162   -9.2779   12.5795 O   0  0  0  0  0  0  0  0  0  0  0  0
    7.5840   -9.6620   13.0839 C   0  0  0  0  0  0  0  0  0  0  0  0
    3.3614   -6.7511    9.3228 C   0  0  0  0  0  0  0  0  0  0  0  0
    5.7585  -10.9658   11.7467 C   0  0  0  0  0  0  0  0  0  0  0  0
  1  2  1  0
  1  6  1  0
  2 11  1  0
  2 24  1  0
  3 24  2  0
  4 17  1  0
  5  9  1  0
  5 19  1  0
  6 12  1  0
  7 20  1  0
  8 24  1  0
  9 21  1  0
 10 23  1  0
 10 25  1  0
 11 17  1  0
 11 19  1  0
 12 22  2  0
 12 25  1  0
 13 19  1  0
 14 20  1  0
 15 23  2  0
 16 23  1  0
 18 21  1  0
 20 25  1  0
M  END
>  <ID>  (1) 
conformer_0

$$$$
