
     RDKit          3D

 24 24  0  0  0  0  0  0  0  0999 V2000
    4.6718   -6.7495   10.0443 O   0  0  0  0  0  0  0  0  0  0  0  0
    3.3428   -8.5255    9.5389 C   0  0  0  0  0  0  0  0  0  0  0  0
    1.1800   -8.4363    8.2578 C   0  0  0  0  0  0  0  0  0  0  0  0
    5.7139   -9.4223   14.0175 O   0  0  0  0  0  0  0  0  0  0  0  0
    2.2030  -10.7376    9.3323 C   0  0  0  0  0  0  0  0  0  0  0  0
    0.6068   -7.1976    8.2002 O   0  0  0  0  0  0  0  0  0  0  0  0
    3.4380  -10.9839   10.2988 N   0  0  0  0  0  0  0  0  0  0  0  0
    7.1262   -9.2691   11.2482 C   0  0  0  0  0  0  0  0  0  0  0  0
    1.9489   -9.1697    9.3304 C   0  0  0  0  0  0  0  0  0  0  0  0
    7.8562   -8.6592   12.1019 O   0  0  0  0  0  0  0  0  0  0  0  0
    5.2832  -10.1651   13.0020 C   0  0  0  0  0  0  0  0  0  0  0  0
    4.1724  -12.1379   13.8647 C   0  0  0  0  0  0  0  0  0  0  0  0
    0.5792   -9.3011    7.1572 C   0  0  0  0  0  0  0  0  0  0  0  0
    4.0198  -10.9799   13.0520 C   0  0  0  0  0  0  0  0  0  0  0  0
    1.8064  -12.7546    6.4919 O   0  0  0  0  0  0  0  0  0  0  0  0
    3.4869   -7.0956    9.7794 C   0  0  0  0  0  0  0  0  0  0  0  0
    4.9302  -10.4511   10.5501 C   0  0  0  0  0  0  0  0  0  0  0  0
    2.7062  -11.0345   12.5400 O   0  0  0  0  0  0  0  0  0  0  0  0
    1.4745  -11.6250    7.0925 C   0  0  0  0  0  0  0  0  0  0  0  0
    0.3224  -10.7489    7.4880 C   0  0  0  0  0  0  0  0  0  0  0  0
    5.9359  -10.0017   11.6647 C   0  0  0  0  0  0  0  0  0  0  0  0
    2.7229  -11.1687    7.8972 C   0  0  0  0  0  0  0  0  0  0  0  0
    7.4615   -9.3527    9.7786 C   0  0  0  0  0  0  0  0  0  0  0  0
    2.4943   -6.3335    9.9057 O   0  0  0  0  0  0  0  0  0  0  0  0
  1 16  2  0
  2  9  1  0
  2 16  1  0
  3  6  1  0
  3  9  1  0
  3 13  1  0
  4 11  1  0
  5  7  1  0
  5  9  1  0
  5 22  1  0
  7 17  1  0
  8 10  2  0
  8 21  1  0
  8 23  1  0
 11 14  1  0
 11 21  1  0
 12 14  1  0
 13 20  1  0
 14 18  1  0
 15 19  1  0
 16 24  1  0
 17 21  2  3
 19 20  1  0
 19 22  1  0
M  END
>  <ID>  (1) 
conformer_0

$$$$
