
     RDKit          3D

 32 36  0  0  0  0  0  0  0  0999 V2000
    6.4645   -8.9527   10.9235 C   0  0  0  0  0  0  0  0  0  0  0  0
    1.1929  -10.2592   10.1940 C   0  0  0  0  0  0  0  0  0  0  0  0
    5.7134  -10.3292   13.3176 C   0  0  0  0  0  0  0  0  0  0  0  0
    0.5462   -7.6424    7.8278 O   0  0  0  0  0  0  0  0  0  0  0  0
    1.7630  -12.1332    7.1606 N   0  0  0  0  0  0  0  0  0  0  0  0
    1.7011   -8.0498    8.4785 C   0  0  0  0  0  0  0  0  0  0  0  0
    3.9179   -7.1557    9.4515 N   0  0  0  0  0  0  0  0  0  0  0  0
    7.4016   -9.1627   12.0841 C   0  0  0  0  0  0  0  0  0  0  0  0
    6.9310   -8.5766    9.5659 C   0  0  0  0  0  0  0  0  0  0  0  0
    2.5603  -11.8136    8.3743 C   0  0  0  0  0  0  0  0  0  0  0  0
    2.1574   -9.8944   12.5594 C   0  0  0  0  0  0  0  0  0  0  0  0
    7.9064   -8.4071    6.9238 C   0  0  0  0  0  0  0  0  0  0  0  0
    8.5585   -9.2096    7.8769 C   0  0  0  0  0  0  0  0  0  0  0  0
    1.4415  -10.8241   11.5681 C   0  0  0  0  0  0  0  0  0  0  0  0
    5.1210  -11.2311   14.2369 C   0  0  0  0  0  0  0  0  0  0  0  0
    6.8289   -7.6710    7.2965 C   0  0  0  0  0  0  0  0  0  0  0  0
    5.1646   -5.5014    8.3602 O   0  0  0  0  0  0  0  0  0  0  0  0
    6.9789   -9.8428   13.1823 N   0  0  0  0  0  0  0  0  0  0  0  0
    6.2974   -7.7004    8.5856 C   0  0  0  0  0  0  0  0  0  0  0  0
    8.5980   -8.7220   12.0648 O   0  0  0  0  0  0  0  0  0  0  0  0
    2.4868   -7.0506    9.1249 C   0  0  0  0  0  0  0  0  0  0  0  0
    4.0157   -6.6047   10.7916 O   0  0  0  0  0  0  0  0  0  0  0  0
    5.1582   -9.3115   11.2375 C   0  0  0  0  0  0  0  0  0  0  0  0
    3.4627  -10.3854   12.9109 C   0  0  0  0  0  0  0  0  0  0  0  0
    8.0781   -9.2665    9.1361 C   0  0  0  0  0  0  0  0  0  0  0  0
    5.1000   -6.8156    8.7495 C   0  0  0  0  0  0  0  0  0  0  0  0
    2.2048   -9.3919    8.0194 C   0  0  0  0  0  0  0  0  0  0  0  0
    4.7092   -9.9490   12.4254 C   0  0  0  0  0  0  0  0  0  0  0  0
    3.7040  -11.2804   13.9071 C   0  0  0  0  0  0  0  0  0  0  0  0
    1.7539   -9.6682    6.5975 C   0  0  0  0  0  0  0  0  0  0  0  0
    1.9431  -10.5690    8.9112 C   0  0  0  0  0  0  0  0  0  0  0  0
    1.6056  -11.0806    6.1834 C   0  0  0  0  0  0  0  0  0  0  0  0
  1  8  1  0
  1  9  1  0
  1 23  2  0
  2 14  1  0
  2 31  1  0
  3 15  1  0
  3 18  2  0
  3 28  1  0
  4  6  1  0
  5 10  1  0
  5 32  1  0
  6 21  1  0
  6 27  1  0
  7 21  1  0
  7 22  1  0
  7 26  1  0
  8 18  1  0
  8 20  2  0
  9 19  2  0
  9 25  1  0
 10 31  1  0
 11 14  1  0
 11 24  1  0
 12 13  1  0
 12 16  2  0
 13 25  2  0
 15 29  1  0
 16 19  1  0
 17 26  2  0
 19 26  1  0
 23 28  1  0
 24 28  1  0
 24 29  1  0
 27 30  1  0
 27 31  1  0
 30 32  2  0
M  END
>  <ID>  (1) 
conformer_0

$$$$
