
     RDKit          3D

 33 36  0  0  0  0  0  0  0  0999 V2000
    3.3990  -13.1408    8.0231 C   0  0  0  0  0  0  0  0  0  0  0  0
    5.9504   -8.1520   10.3454 O   0  0  0  0  0  0  0  0  0  0  0  0
    3.7982  -11.7380   13.2611 C   0  0  0  0  0  0  0  0  0  0  0  0
    0.4049   -7.2898    7.9261 O   0  0  0  0  0  0  0  0  0  0  0  0
    3.1111  -12.7726   13.0861 O   0  0  0  0  0  0  0  0  0  0  0  0
    7.1411   -9.5906   12.0418 C   0  0  0  0  0  0  0  0  0  0  0  0
    1.4264   -8.1775    8.1633 C   0  0  0  0  0  0  0  0  0  0  0  0
    7.0900   -9.0136   10.6799 C   0  0  0  0  0  0  0  0  0  0  0  0
    5.2975   -9.1409    8.3835 O   0  0  0  0  0  0  0  0  0  0  0  0
    1.1958  -10.4106    7.2248 N   0  0  0  0  0  0  0  0  0  0  0  0
    2.1782  -12.0557    5.8740 C   0  0  0  0  0  0  0  0  0  0  0  0
    2.6434   -6.5422    9.7211 O   0  0  0  0  0  0  0  0  0  0  0  0
    3.8471   -6.5611   10.4514 O   0  0  0  0  0  0  0  0  0  0  0  0
    7.1042  -11.3860   14.2565 O   0  0  0  0  0  0  0  0  0  0  0  0
    5.0063   -8.3372    9.3781 C   0  0  0  0  0  0  0  0  0  0  0  0
    4.8519  -11.5888   14.1103 O   0  0  0  0  0  0  0  0  0  0  0  0
    2.8667  -13.1899    5.6498 C   0  0  0  0  0  0  0  0  0  0  0  0
    4.6798  -10.0141   12.0029 C   0  0  0  0  0  0  0  0  0  0  0  0
    2.3837  -10.0177   11.2289 C   0  0  0  0  0  0  0  0  0  0  0  0
    3.3057  -10.4745   12.5422 C   0  0  0  0  0  0  0  0  0  0  0  0
    3.4510  -13.7951    6.8028 N   0  0  0  0  0  0  0  0  0  0  0  0
    2.4616   -9.8406   13.6212 O   0  0  0  0  0  0  0  0  0  0  0  0
    2.0358  -11.4985    7.1320 C   0  0  0  0  0  0  0  0  0  0  0  0
    8.3291   -8.9931   12.9829 Cl  0  0  0  0  0  0  0  0  0  0  0  0
    5.9951  -10.3210   12.5293 N   0  0  0  0  0  0  0  0  0  0  0  0
    2.7181  -12.0344    8.1953 N   0  0  0  0  0  0  0  0  0  0  0  0
    0.7483   -9.5988    8.1850 C   0  0  0  0  0  0  0  0  0  0  0  0
    2.8561   -8.8340   10.5355 O   0  0  0  0  0  0  0  0  0  0  0  0
    6.0379  -11.0830   13.6766 C   0  0  0  0  0  0  0  0  0  0  0  0
    0.9591  -10.3355   10.9103 C   0  0  0  0  0  0  0  0  0  0  0  0
    2.8258   -8.2863    8.1486 O   0  0  0  0  0  0  0  0  0  0  0  0
    3.5167   -7.8218    9.5290 C   0  0  0  0  0  0  0  0  0  0  0  0
    0.4558  -10.0081    9.5462 O   0  0  0  0  0  0  0  0  0  0  0  0
  1 21  1  0
  1 26  2  0
  2  8  1  0
  2 15  1  0
  3  5  2  0
  3 16  1  0
  3 20  1  0
  4  7  2  0
  6  8  1  0
  6 24  1  0
  6 25  1  0
  7 27  1  0
  7 31  1  0
  9 15  2  0
 10 23  2  3
 10 27  1  0
 11 17  2  0
 11 23  1  0
 12 13  1  0
 12 32  1  0
 14 29  2  0
 15 32  1  0
 16 29  1  0
 17 21  1  0
 18 20  1  0
 18 25  1  0
 19 20  1  0
 19 28  1  0
 19 30  1  0
 20 22  1  0
 23 26  1  0
 25 29  1  0
 27 33  1  0
 28 32  1  0
 30 33  1  0
 31 32  1  0
M  END
>  <ID>  (1) 
conformer_0

$$$$
