
     RDKit          3D

 31 33  0  0  0  0  0  0  0  0999 V2000
    2.1694  -10.6451   11.1036 N   0  0  0  0  0  0  0  0  0  0  0  0
    4.0534   -6.5567   10.4914 O   0  0  0  0  0  0  0  0  0  0  0  0
    2.9491  -12.7839    7.6438 C   0  0  0  0  0  0  0  0  0  0  0  0
    2.6822  -12.7794    6.2862 C   0  0  0  0  0  0  0  0  0  0  0  0
    5.5756   -9.0954    8.1113 C   0  0  0  0  0  0  0  0  0  0  0  0
    4.7183   -5.9544    8.3312 O   0  0  0  0  0  0  0  0  0  0  0  0
    5.3054  -10.5906   13.1200 C   0  0  0  0  0  0  0  0  0  0  0  0
    0.1345  -10.2342    9.8369 C   0  0  0  0  0  0  0  0  0  0  0  0
    7.7491   -9.0817    9.9901 O   0  0  0  0  0  0  0  0  0  0  0  0
    1.2035   -9.6935    8.8623 C   0  0  0  0  0  0  0  0  0  0  0  0
    3.0852  -10.6377   12.1890 C   0  0  0  0  0  0  0  0  0  0  0  0
    4.4555  -10.5727   12.0404 C   0  0  0  0  0  0  0  0  0  0  0  0
    2.4544  -11.8429    8.4451 N   0  0  0  0  0  0  0  0  0  0  0  0
    6.6903   -8.2502   11.8094 O   0  0  0  0  0  0  0  0  0  0  0  0
    1.9708  -11.6912    5.7490 C   0  0  0  0  0  0  0  0  0  0  0  0
    6.6641   -8.3976   10.3704 C   0  0  0  0  0  0  0  0  0  0  0  0
    1.7481  -10.7613    7.9279 C   0  0  0  0  0  0  0  0  0  0  0  0
    3.4026  -10.8960   14.6072 C   0  0  0  0  0  0  0  0  0  0  0  0
    4.7803  -10.8101   14.3970 C   0  0  0  0  0  0  0  0  0  0  0  0
    1.8535   -7.2855    8.7665 C   0  0  0  0  0  0  0  0  0  0  0  0
    1.4231   -6.1003    9.0963 O   0  0  0  0  0  0  0  0  0  0  0  0
    3.1712   -7.7893    8.6912 N   0  0  0  0  0  0  0  0  0  0  0  0
    6.7112  -10.3605   13.0495 O   0  0  0  0  0  0  0  0  0  0  0  0
    4.3903   -7.0125    9.2149 C   0  0  0  0  0  0  0  0  0  0  0  0
    1.2285  -10.7724   13.7093 O   0  0  0  0  0  0  0  0  0  0  0  0
    1.5180  -10.6727    6.5541 C   0  0  0  0  0  0  0  0  0  0  0  0
    2.5354  -10.7758   13.5095 C   0  0  0  0  0  0  0  0  0  0  0  0
    7.3432   -9.1915   12.7390 C   0  0  0  0  0  0  0  0  0  0  0  0
    0.7508   -8.2941    8.3494 C   0  0  0  0  0  0  0  0  0  0  0  0
    0.9349  -11.2914   10.6377 C   0  0  0  0  0  0  0  0  0  0  0  0
    5.7148   -8.0108    9.2033 C   0  0  0  0  0  0  0  0  0  0  0  0
  1 11  1  0
  1 30  1  0
  2 24  1  0
  3  4  1  0
  3 13  2  0
  4 15  1  0
  5 31  1  0
  6 24  1  0
  7 12  2  0
  7 19  1  0
  7 23  1  0
  8 10  1  0
  8 30  1  0
  9 16  2  0
 10 17  1  0
 10 29  1  0
 11 12  1  0
 11 27  1  0
 13 17  1  0
 14 16  1  0
 14 28  1  0
 15 26  2  0
 16 31  1  0
 17 26  1  0
 18 19  1  0
 18 27  2  0
 20 21  2  0
 20 22  1  0
 20 29  1  0
 22 24  1  0
 23 28  1  0
 24 31  1  0
 25 27  1  0
M  END
>  <ID>  (1) 
conformer_0

$$$$
