
     RDKit          3D

 27 29  0  0  0  0  0  0  0  0999 V2000
    2.2301   -8.9944    8.5549 C   0  0  0  0  0  0  0  0  0  0  0  0
    4.5807   -8.0397    8.2894 C   0  0  0  0  0  0  0  0  0  0  0  0
    7.9811   -8.2948    9.6969 N   0  0  0  0  0  0  0  0  0  0  0  0
    2.8659  -11.4971   12.2130 C   0  0  0  0  0  0  0  0  0  0  0  0
    1.7492  -10.9988    9.8915 C   0  0  0  0  0  0  0  0  0  0  0  0
    1.4436  -12.9279   11.0772 O   0  0  0  0  0  0  0  0  0  0  0  0
    5.5028  -10.0486   14.0329 F   0  0  0  0  0  0  0  0  0  0  0  0
    3.3375  -12.5728   12.9091 C   0  0  0  0  0  0  0  0  0  0  0  0
    2.0986   -8.8232   11.0059 O   0  0  0  0  0  0  0  0  0  0  0  0
    2.2989   -9.6288    9.8927 C   0  0  0  0  0  0  0  0  0  0  0  0
    3.6019  -10.4248   12.6861 C   0  0  0  0  0  0  0  0  0  0  0  0
    6.6273   -8.1653    9.6095 C   0  0  0  0  0  0  0  0  0  0  0  0
    2.2995   -7.4615    8.8258 C   0  0  0  0  0  0  0  0  0  0  0  0
    8.6130   -8.5798    8.5581 C   0  0  0  0  0  0  0  0  0  0  0  0
    6.6530   -8.5700    7.2525 C   0  0  0  0  0  0  0  0  0  0  0  0
    4.5526  -10.7911   13.5206 C   0  0  0  0  0  0  0  0  0  0  0  0
    5.9788   -8.2655    8.3921 C   0  0  0  0  0  0  0  0  0  0  0  0
    1.7908  -11.5202    8.5700 O   0  0  0  0  0  0  0  0  0  0  0  0
    3.7670   -7.3540    9.2987 C   0  0  0  0  0  0  0  0  0  0  0  0
    4.0505   -6.3023   10.0890 O   0  0  0  0  0  0  0  0  0  0  0  0
    1.6293   -6.2720    9.1495 O   0  0  0  0  0  0  0  0  0  0  0  0
    4.3924  -12.1774   13.7140 C   0  0  0  0  0  0  0  0  0  0  0  0
    1.7652  -10.9615    6.1363 C   0  0  0  0  0  0  0  0  0  0  0  0
    1.0052  -10.8947    7.4778 C   0  0  0  0  0  0  0  0  0  0  0  0
    1.0049   -9.3898    7.7861 C   0  0  0  0  0  0  0  0  0  0  0  0
    8.0294   -8.6897    7.3315 N   0  0  0  0  0  0  0  0  0  0  0  0
    1.8213  -11.6803   11.2297 C   0  0  0  0  0  0  0  0  0  0  0  0
  1 10  1  0
  1 13  1  0
  1 25  1  0
  2 17  1  0
  2 19  1  0
  3 12  1  0
  3 14  2  0
  4  8  1  0
  4 11  1  0
  4 27  1  0
  5 10  1  0
  5 18  1  0
  5 27  1  0
  6 27  1  0
  7 16  1  0
  8 22  1  0
  9 10  1  0
 11 16  1  0
 12 17  1  0
 13 19  1  0
 13 21  1  0
 14 26  1  0
 15 17  2  0
 15 26  1  0
 16 22  1  0
 18 24  1  0
 19 20  1  0
 23 24  1  0
 24 25  1  0
M  END
>  <ID>  (1) 
conformer_0

$$$$
