
     RDKit          3D

 25 27  0  0  0  0  0  0  0  0999 V2000
    2.4795   -8.0729    8.7083 C   0  0  0  0  0  0  0  0  0  0  0  0
    1.4118   -7.2606    8.4379 O   0  0  0  0  0  0  0  0  0  0  0  0
    5.9944   -9.2139   11.8578 C   0  0  0  0  0  0  0  0  0  0  0  0
    5.5543   -8.5722   10.6302 N   0  0  0  0  0  0  0  0  0  0  0  0
    3.8387  -11.9182    7.4566 C   0  0  0  0  0  0  0  0  0  0  0  0
    7.2488   -8.7170   12.4128 C   0  0  0  0  0  0  0  0  0  0  0  0
    2.5241  -12.2143    6.7174 C   0  0  0  0  0  0  0  0  0  0  0  0
    1.5544  -10.1557    9.5157 O   0  0  0  0  0  0  0  0  0  0  0  0
    2.4327   -9.5890    8.6435 C   0  0  0  0  0  0  0  0  0  0  0  0
    1.4580  -11.1236    6.8577 C   0  0  0  0  0  0  0  0  0  0  0  0
    3.0711  -11.7857   13.6495 C   0  0  0  0  0  0  0  0  0  0  0  0
    4.9909  -10.0653   12.4922 C   0  0  0  0  0  0  0  0  0  0  0  0
    3.9792  -11.4950    8.9500 C   0  0  0  0  0  0  0  0  0  0  0  0
    3.6159   -6.4968   10.1140 O   0  0  0  0  0  0  0  0  0  0  0  0
    7.2934   -7.6738   13.0725 O   0  0  0  0  0  0  0  0  0  0  0  0
    2.2661   -9.9495    7.2359 O   0  0  0  0  0  0  0  0  0  0  0  0
    4.3944  -12.2500   13.3925 C   0  0  0  0  0  0  0  0  0  0  0  0
    5.3196  -11.3708   12.8238 C   0  0  0  0  0  0  0  0  0  0  0  0
    3.6992   -9.6131   12.8079 C   0  0  0  0  0  0  0  0  0  0  0  0
    0.2933   -7.8433    7.8039 C   0  0  0  0  0  0  0  0  0  0  0  0
    3.7481   -7.5478    9.2633 C   0  0  0  0  0  0  0  0  0  0  0  0
    8.2959   -9.3624   12.1416 O   0  0  0  0  0  0  0  0  0  0  0  0
    3.9113   -9.9375    9.1509 C   0  0  0  0  0  0  0  0  0  0  0  0
    2.7306  -10.4466   13.3432 C   0  0  0  0  0  0  0  0  0  0  0  0
    4.3121   -8.7638    9.9656 C   0  0  0  0  0  0  0  0  0  0  0  0
  1  2  1  0
  1  9  1  0
  1 21  1  0
  2 20  1  0
  3  4  2  3
  3  6  1  0
  3 12  1  0
  4 25  1  0
  5  7  1  0
  5 13  1  0
  6 15  2  0
  6 22  1  0
  7 10  1  0
  8  9  1  0
  9 16  1  0
  9 23  1  0
 10 16  1  0
 11 17  2  0
 11 24  1  0
 12 18  2  0
 12 19  1  0
 13 23  1  0
 14 21  1  0
 17 18  1  0
 19 24  2  0
 21 25  1  0
 23 25  1  0
M  END
>  <ID>  (1) 
conformer_0

$$$$
