
     RDKit          3D

 27 28  0  0  0  0  0  0  0  0999 V2000
    2.2419  -11.9362   13.1904 C   0  0  0  0  0  0  0  0  0  0  0  0
    3.1739   -9.7365    8.7143 C   0  0  0  0  0  0  0  0  0  0  0  0
    4.1771   -8.9339    9.5731 C   0  0  0  0  0  0  0  0  0  0  0  0
    3.9180  -11.7750   11.4901 C   0  0  0  0  0  0  0  0  0  0  0  0
    7.5009   -9.3007   13.3941 C   0  0  0  0  0  0  0  0  0  0  0  0
    1.8544   -6.3841    9.1478 N   0  0  0  0  0  0  0  0  0  0  0  0
    7.7360  -10.3897   13.9528 O   0  0  0  0  0  0  0  0  0  0  0  0
    2.4883  -11.7303    7.3536 C   0  0  0  0  0  0  0  0  0  0  0  0
    0.2553   -7.2912    7.8770 C   0  0  0  0  0  0  0  0  0  0  0  0
    8.1895   -8.9608   12.1751 C   0  0  0  0  0  0  0  0  0  0  0  0
    6.2393   -9.9295   11.0678 C   0  0  0  0  0  0  0  0  0  0  0  0
    7.2553   -8.8532   11.0216 C   0  0  0  0  0  0  0  0  0  0  0  0
    3.9963   -7.4269    9.9297 P   0  0  0  0  0  4  0  0  0  0  0  0
    3.4481  -11.0413    8.1439 C   0  0  0  0  0  0  0  0  0  0  0  0
    2.2083  -10.5140   13.3303 C   0  0  0  0  0  0  0  0  0  0  0  0
    3.0740   -9.7543   12.5378 C   0  0  0  0  0  0  0  0  0  0  0  0
    3.1110  -12.5731   12.2540 C   0  0  0  0  0  0  0  0  0  0  0  0
    6.4725   -8.5868   13.7548 O   0  0  0  0  0  0  0  0  0  0  0  0
    1.4129   -7.7483    8.7866 C   0  0  0  0  0  0  0  0  0  0  0  0
    4.8567   -9.6168   10.7265 N   0  0  0  0  0  0  0  0  0  0  0  0
    2.7158  -13.0040    6.8424 N   0  0  0  0  0  0  0  0  0  0  0  0
    3.3492   -6.9979   11.0167 O   0  0  0  0  0  0  0  0  0  0  0  0
    3.8947  -10.3914   11.6027 C   0  0  0  0  0  0  0  0  0  0  0  0
    0.9938   -9.8762    7.5847 C   0  0  0  0  0  0  0  0  0  0  0  0
    1.2530  -11.1369    7.0560 C   0  0  0  0  0  0  0  0  0  0  0  0
    1.8850   -9.1533    8.3694 C   0  0  0  0  0  0  0  0  0  0  0  0
    4.6127   -6.5312    9.1505 O   0  0  0  0  0  1  0  0  0  0  0  0
  1 15  2  0
  1 17  1  0
  2  3  1  0
  2 14  1  0
  2 26  2  0
  3 13  1  0
  3 20  1  0
  4 17  2  0
  4 23  1  0
  5  7  2  0
  5 10  1  0
  5 18  1  0
  6 19  1  0
  8 14  2  0
  8 21  1  0
  8 25  1  0
  9 19  1  0
 10 12  1  0
 11 12  1  0
 11 20  1  0
 13 22  1  0
 13 27  2  0
 15 16  1  0
 16 23  2  0
 19 26  1  0
 20 23  1  0
 24 25  2  0
 24 26  1  0
M  END
>  <ID>  (1) 
conformer_0

$$$$
