
     RDKit          3D

 23 23  0  0  0  0  0  0  0  0999 V2000
    2.2615   -6.5071    9.3318 O   0  0  0  0  0  0  0  0  0  0  0  0
    2.6704   -7.7331    9.5791 C   0  0  0  0  0  0  0  0  0  0  0  0
    0.8538   -8.8831    8.1059 C   0  0  0  0  0  0  0  0  0  0  0  0
    2.1776  -11.9493    6.6272 C   0  0  0  0  0  0  0  0  0  0  0  0
    4.9352   -9.4743   13.2743 O   0  0  0  0  0  0  0  0  0  0  0  0
    1.9061  -11.0525    7.7852 C   0  0  0  0  0  0  0  0  0  0  0  0
    0.4119   -7.6872    7.7820 O   0  0  0  0  0  0  0  0  0  0  0  0
    6.2784   -9.8964   11.3038 C   0  0  0  0  0  0  0  0  0  0  0  0
    4.1478   -7.8643    9.7675 C   0  0  0  0  0  0  0  0  0  0  0  0
    8.1401   -8.4740   11.2594 O   0  0  0  0  0  0  0  0  0  0  0  0
    2.9015  -10.0644    8.4835 C   0  0  0  0  0  0  0  0  0  0  0  0
    1.9755   -8.9383    9.0867 C   0  0  0  0  0  0  0  0  0  0  0  0
    3.2294  -11.1690   11.0951 O   0  0  0  0  0  0  0  0  0  0  0  0
    7.7740   -9.6255   13.1411 O   0  0  0  0  0  0  0  0  0  0  0  0
    3.6840  -10.7247    9.7058 C   0  0  0  0  0  0  0  0  0  0  0  0
    4.6896   -6.8060   10.4583 O   0  0  0  0  0  0  0  0  0  0  0  0
    0.7487  -10.0928    7.2686 C   0  0  0  0  0  0  0  0  0  0  0  0
    4.7737  -12.2143   14.0424 C   0  0  0  0  0  0  0  0  0  0  0  0
    5.0216  -11.8619   12.5682 C   0  0  0  0  0  0  0  0  0  0  0  0
    5.3280  -10.3753   12.3486 C   0  0  0  0  0  0  0  0  0  0  0  0
    7.4620   -9.2518   11.9406 C   0  0  0  0  0  0  0  0  0  0  0  0
    3.8439  -12.3600   11.7211 C   0  0  0  0  0  0  0  0  0  0  0  0
    1.3554  -11.8590    8.8404 O   0  0  0  0  0  0  0  0  0  0  0  0
  1  2  1  0
  2  9  1  0
  2 12  1  0
  3  7  1  0
  3 12  1  0
  3 17  1  0
  4  6  1  0
  5 20  1  0
  6 11  1  0
  6 17  1  0
  6 23  1  0
  8 20  1  0
  8 21  1  0
  9 16  1  0
 10 21  2  0
 11 12  1  0
 11 15  1  0
 13 15  1  0
 13 22  1  0
 14 21  1  0
 18 19  1  0
 19 20  1  0
 19 22  1  0
M  END
>  <ID>  (1) 
conformer_0

$$$$
