
     RDKit          3D

 20 19  0  0  0  0  0  0  0  0999 V2000
    1.6831  -11.0268    5.9810 O   0  0  0  0  0  0  0  0  0  0  0  0
    4.8585   -9.3879   11.9312 C   0  0  0  0  0  0  0  0  0  0  0  0
    1.3317   -5.9313    8.9213 O   0  0  0  0  0  0  0  0  0  0  0  0
    2.0651  -11.9183    6.8173 C   0  0  0  0  0  0  0  0  0  0  0  0
    7.1328   -9.0511   13.1573 C   0  0  0  0  0  0  0  0  0  0  0  0
    0.6577   -8.0590    7.4471 O   0  0  0  0  0  0  0  0  0  0  0  0
    3.5002  -10.1216   12.3986 C   0  0  0  0  0  0  0  0  0  0  0  0
    8.2629   -9.6432   13.7411 C   0  0  0  0  0  0  0  0  0  0  0  0
    2.4804  -13.0668    6.5530 O   0  0  0  0  0  0  0  0  0  0  0  0
    1.9502   -6.9302    9.6366 C   0  0  0  0  0  0  0  0  0  0  0  0
    1.3495  -10.1805    8.4953 C   0  0  0  0  0  0  0  0  0  0  0  0
    2.2569  -11.4211    8.2735 C   0  0  0  0  0  0  0  0  0  0  0  0
    5.6405  -10.6758   13.9225 O   0  0  0  0  0  0  0  0  0  0  0  0
    1.7541   -8.8404    7.8467 C   0  0  0  0  0  0  0  0  0  0  0  0
    2.6690   -8.0660    8.8675 C   0  0  0  0  0  0  0  0  0  0  0  0
    4.6156   -7.3057   10.5933 O   0  0  0  0  0  0  0  0  0  0  0  0
    7.1830   -7.8738   12.6648 O   0  0  0  0  0  0  0  0  0  0  0  0
    3.3233   -8.9828    9.8590 N   0  0  0  0  0  0  0  0  0  0  0  0
    5.9719   -9.8531   12.9315 C   0  0  0  0  0  0  0  0  0  0  0  0
    4.3310   -8.4914   10.7457 C   0  0  0  0  0  0  0  0  0  0  0  0
  1  4  2  0
  2  7  1  0
  2 19  1  0
  2 20  1  0
  3 10  1  0
  4  9  1  0
  4 12  1  0
  5  8  1  0
  5 17  2  0
  5 19  1  0
  6 14  1  0
 10 15  1  0
 11 12  1  0
 11 14  1  0
 13 19  1  0
 14 15  1  0
 15 18  1  0
 16 20  2  0
 18 20  1  0
M  END
>  <ID>  (1) 
conformer_0

$$$$
