
     RDKit          3D

 22 23  0  0  0  0  0  0  0  0999 V2000
    6.5951   -8.0017   11.7713 O   0  0  0  0  0  0  0  0  0  0  0  0
    1.1064  -10.6574    7.8183 C   0  0  0  0  0  0  0  0  0  0  0  0
    2.7220   -6.0835    9.5857 O   0  0  0  0  0  0  0  0  0  0  0  0
    3.6057   -9.3619   11.1769 C   0  0  0  0  0  0  0  0  0  0  0  0
    2.1136  -10.2169    8.9341 C   0  0  0  0  0  0  0  0  0  0  0  0
    4.7920   -9.8929   13.3556 C   0  0  0  0  0  0  0  0  0  0  0  0
    3.1439   -8.4403   10.1416 C   0  0  0  0  0  0  0  0  0  0  0  0
    4.3855   -9.1101   12.2891 N   0  0  0  0  0  0  0  0  0  0  0  0
    3.4985   -7.0226   10.1320 C   0  0  0  0  0  0  0  0  0  0  0  0
    2.7211  -11.0941    9.8536 C   0  0  0  0  0  0  0  0  0  0  0  0
    1.8507   -7.9930    8.0305 N   0  0  0  0  0  0  0  0  0  0  0  0
    1.6665  -11.5016    6.7325 C   0  0  0  0  0  0  0  0  0  0  0  0
    2.6370  -12.6047    6.8394 C   0  0  0  0  0  0  0  0  0  0  0  0
    6.2970   -9.8408   13.4381 C   0  0  0  0  0  0  0  0  0  0  0  0
    3.2646  -13.0764    8.1783 C   0  0  0  0  0  0  0  0  0  0  0  0
    6.9294   -8.6679   12.7801 C   0  0  0  0  0  0  0  0  0  0  0  0
    0.4339   -7.7606    7.9672 C   0  0  0  0  0  0  0  0  0  0  0  0
    8.0819   -8.3225   13.3239 O   0  0  0  0  0  0  0  0  0  0  0  0
    2.3703   -8.8662    9.0648 C   0  0  0  0  0  0  0  0  0  0  0  0
    2.8700  -12.6493    9.6324 C   0  0  0  0  0  0  0  0  0  0  0  0
    3.2761  -10.6540   11.0133 N   0  0  0  0  0  0  0  0  0  0  0  0
    4.2215  -10.6520   14.2071 O   0  0  0  0  0  0  0  0  0  0  0  0
  1 16  2  0
  2  5  1  0
  2 12  1  0
  3  9  1  0
  4  7  1  0
  4  8  1  0
  4 21  2  0
  5 10  1  0
  5 19  2  0
  6  8  1  0
  6 14  1  0
  6 22  2  0
  7  9  1  0
  7 19  1  0
 10 20  1  0
 10 21  1  0
 11 17  1  0
 11 19  1  0
 12 13  2  0
 13 15  1  0
 14 16  1  0
 15 20  1  0
 16 18  1  0
M  END
>  <ID>  (1) 
conformer_0

$$$$
