
     RDKit          3D

 29 32  0  0  0  0  0  0  0  0999 V2000
    1.4038  -11.0105    6.3248 C   0  0  0  0  0  0  0  0  0  0  0  0
    3.9622  -11.4600   14.8825 N   0  0  0  0  0  0  0  0  0  0  0  0
    4.1495  -12.4419    7.6072 C   0  0  0  0  0  0  0  0  0  0  0  0
    3.9994   -6.6653    9.5653 O   0  0  0  0  0  0  0  0  0  0  0  0
    4.3908   -9.0895   11.5921 N   0  0  0  0  0  0  0  0  0  0  0  0
    3.5169  -13.4828    6.7968 N   0  0  0  0  0  0  0  0  0  0  0  0
    2.7619  -10.1251   13.2061 C   0  0  0  0  0  0  0  0  0  0  0  0
    7.3445   -8.5604    9.5405 C   0  0  0  0  0  0  0  0  0  0  0  0
    6.6034   -9.5762   10.3442 C   0  0  0  0  0  0  0  0  0  0  0  0
    5.8083   -9.0509   11.5126 C   0  0  0  0  0  0  0  0  0  0  0  0
    5.1670  -11.1571   14.3654 N   0  0  0  0  0  0  0  0  0  0  0  0
    4.0344   -9.8683   12.6869 C   0  0  0  0  0  0  0  0  0  0  0  0
    1.4180   -6.2319    9.1765 O   0  0  0  0  0  0  0  0  0  0  0  0
    2.9292   -9.6386    7.6292 C   0  0  0  0  0  0  0  0  0  0  0  0
    5.1012   -8.5366    8.5332 C   0  0  0  0  0  0  0  0  0  0  0  0
    1.5421   -9.8668    7.1162 C   0  0  0  0  0  0  0  0  0  0  0  0
    6.5347   -8.5126   12.4001 O   0  0  0  0  0  0  0  0  0  0  0  0
    3.9821   -7.7005    8.8313 C   0  0  0  0  0  0  0  0  0  0  0  0
    0.2454   -7.8952    7.8649 C   0  0  0  0  0  0  0  0  0  0  0  0
    2.8239  -10.9524   14.3899 N   0  0  0  0  0  0  0  0  0  0  0  0
    1.5052   -7.3904    8.5602 C   0  0  0  0  0  0  0  0  0  0  0  0
    3.5438  -11.1212    7.2817 N   0  0  0  0  0  0  0  0  0  0  0  0
    5.0126  -10.4044   13.3543 C   0  0  0  0  0  0  0  0  0  0  0  0
    6.4629   -7.9725    8.4823 C   0  0  0  0  0  0  0  0  0  0  0  0
    2.7565  -11.4633    6.0146 C   0  0  0  0  0  0  0  0  0  0  0  0
    2.8517  -12.8809    5.6243 C   0  0  0  0  0  0  0  0  0  0  0  0
    0.4677   -9.4372    8.0482 C   0  0  0  0  0  0  0  0  0  0  0  0
    2.7211   -8.0856    8.2011 N   0  0  0  0  0  0  0  0  0  0  0  0
    8.5301   -8.1125    9.7362 O   0  0  0  0  0  0  0  0  0  0  0  0
  1 16  1  0
  1 25  1  0
  2 11  1  0
  2 20  2  0
  3  6  1  0
  3 22  1  0
  4 18  2  0
  5 10  1  0
  5 12  1  0
  6 26  1  0
  7 12  1  0
  7 20  1  0
  8  9  1  0
  8 24  1  0
  8 29  2  0
  9 10  1  0
 10 17  2  0
 11 23  1  0
 12 23  2  0
 13 21  2  0
 14 16  1  0
 14 22  1  0
 14 28  1  0
 15 18  1  0
 15 24  1  0
 16 27  1  0
 18 28  1  0
 19 21  1  0
 19 27  1  0
 21 28  1  0
 22 25  1  0
 25 26  1  0
M  END
>  <ID>  (1) 
conformer_0

$$$$
