
     RDKit          3D

 25 26  0  0  0  0  0  0  0  0999 V2000
    5.4212   -8.9848   11.3706 N   0  0  0  0  0  0  0  0  0  0  0  0
    3.0029   -9.0005   12.0659 C   0  0  0  0  0  0  0  0  0  0  0  0
    5.6226   -9.8240    8.8038 S   0  0  0  0  0  0  0  0  0  0  0  0
    1.9300   -6.3012    9.3371 O   0  0  0  0  0  0  0  0  0  0  0  0
    0.8518  -10.0999    7.7466 C   0  0  0  0  0  0  0  0  0  0  0  0
    5.1616   -8.4308   10.0010 C   0  0  0  0  0  0  0  0  0  0  0  0
    4.3443   -6.3083   10.3799 O   0  0  0  0  0  0  0  0  0  0  0  0
    2.5665   -7.5176    9.1907 C   0  0  0  0  0  0  0  0  0  0  0  0
    3.2884  -13.1743   12.9166 C   0  0  0  0  0  0  0  0  0  0  0  0
    6.5132   -8.8027   13.6246 C   0  0  0  0  0  0  0  0  0  0  0  0
    3.1519  -11.7513   12.6101 C   0  0  0  0  0  0  0  0  0  0  0  0
    0.8609  -11.3141    7.0576 C   0  0  0  0  0  0  0  0  0  0  0  0
    4.1929   -9.6960   11.8510 C   0  0  0  0  0  0  0  0  0  0  0  0
    1.9747  -11.0052   12.9563 C   0  0  0  0  0  0  0  0  0  0  0  0
    2.0858   -9.4360    7.5570 C   0  0  0  0  0  0  0  0  0  0  0  0
    2.8948  -10.2867    6.8287 N   0  0  0  0  0  0  0  0  0  0  0  0
    4.2178  -11.0800   12.0474 C   0  0  0  0  0  0  0  0  0  0  0  0
    1.8900   -9.6386   12.6359 C   0  0  0  0  0  0  0  0  0  0  0  0
    2.6156  -14.2731   12.7088 N   0  0  0  0  0  0  0  0  0  0  0  0
    2.1259  -11.4301    6.5279 N   0  0  0  0  0  0  0  0  0  0  0  0
    6.5816   -8.7428   12.1231 C   0  0  0  0  0  0  0  0  0  0  0  0
    7.7020   -8.5500   11.6400 O   0  0  0  0  0  0  0  0  0  0  0  0
    3.9273   -7.5809    9.8643 C   0  0  0  0  0  0  0  0  0  0  0  0
    2.5071  -12.4814    5.5869 C   0  0  0  0  0  0  0  0  0  0  0  0
    2.3416   -8.1947    8.0041 N   0  0  0  0  0  0  0  0  0  0  0  0
  1  6  1  0
  1 13  1  0
  1 21  1  0
  2 13  1  0
  2 18  2  0
  3  6  1  0
  4  8  2  0
  5 12  1  0
  5 15  1  0
  6 23  1  0
  7 23  1  0
  8 23  1  0
  8 25  1  0
  9 11  1  0
  9 19  2  0
 10 21  1  0
 11 14  1  0
 11 17  2  0
 12 20  1  0
 13 17  1  0
 14 18  1  0
 15 16  2  0
 15 25  1  0
 16 20  1  0
 20 24  1  0
 21 22  2  0
M  END
>  <ID>  (1) 
conformer_0

$$$$
