
     RDKit          3D

 35 37  0  0  0  0  0  0  0  0999 V2000
    6.0186   -7.4585    8.1149 C   0  0  0  0  0  0  0  0  0  0  0  0
    3.1557  -13.2198    7.7995 N   0  0  0  0  0  0  0  0  0  0  0  0
    2.4170   -7.5133    8.3641 C   0  0  0  0  0  0  0  0  0  0  0  0
    5.1048   -7.3595   10.4364 O   0  0  0  0  0  0  0  0  0  0  0  0
    4.7612   -7.2060    9.0972 C   0  0  0  0  0  0  0  0  0  0  0  0
    3.9115  -12.4351    8.6368 C   0  0  0  0  0  0  0  0  0  0  0  0
    3.3278  -10.9338   11.9203 C   0  0  0  0  0  0  0  0  0  0  0  0
    0.2087  -11.2036   10.1337 O   0  0  0  0  0  0  0  0  0  0  0  0
    7.7252   -9.4538    8.9486 P   0  0  0  0  0  4  0  0  0  0  0  0
    3.3460  -11.1722    9.0823 N   0  0  0  0  0  0  0  0  0  0  0  0
    4.6440  -11.2977   15.2175 O   0  0  0  0  0  0  0  0  0  0  0  0
    4.4474  -11.2986   13.9466 C   0  0  0  0  0  0  0  0  0  0  0  0
    5.1736  -12.8429    8.9961 C   0  0  0  0  0  0  0  0  0  0  0  0
    6.8445  -14.4289    9.0391 F   0  0  0  0  0  0  0  0  0  0  0  0
    1.2374  -10.4257   10.2296 C   0  0  0  0  0  0  0  0  0  0  0  0
    1.5088   -9.6461    9.0420 C   0  0  0  0  0  0  0  0  0  0  0  0
    2.0218  -10.5798   11.4610 C   0  0  0  0  0  0  0  0  0  0  0  0
    5.3978  -11.5462   12.9249 N   0  0  0  0  0  0  0  0  0  0  0  0
    1.1989  -10.3722   12.6264 C   0  0  0  0  0  0  0  0  0  0  0  0
    1.9262  -10.6373   13.7740 C   0  0  0  0  0  0  0  0  0  0  0  0
    3.6735   -8.1584    8.7930 N   0  0  0  0  0  0  0  0  0  0  0  0
    1.2248   -8.3224    8.4646 C   0  0  0  0  0  0  0  0  0  0  0  0
    4.8724  -14.8730    7.7582 C   0  0  0  0  0  0  0  0  0  0  0  0
    2.5302  -10.3868    8.2160 C   0  0  0  0  0  0  0  0  0  0  0  0
    3.2536  -10.9558   13.3353 N   0  0  0  0  0  0  0  0  0  0  0  0
    4.7420  -11.2690   11.6163 C   0  0  0  0  0  0  0  0  0  0  0  0
    4.3081   -5.9373    8.8483 O   0  0  0  0  0  0  0  0  0  0  0  0
    3.6248  -14.4389    7.3680 C   0  0  0  0  0  0  0  0  0  0  0  0
    5.6371  -14.0515    8.5913 C   0  0  0  0  0  0  0  0  0  0  0  0
    8.7611  -10.1132    8.0520 O   0  0  0  0  0  1  0  0  0  0  0  0
    0.1202   -7.8639    7.8396 O   0  0  0  0  0  0  0  0  0  0  0  0
    1.9959  -10.3182    6.5127 C   0  0  0  0  0  0  0  0  0  0  0  0
    6.4763  -10.2925    9.0284 O   0  0  0  0  0  0  0  0  0  0  0  0
    7.2894   -8.0373    8.2116 O   0  0  0  0  0  0  0  0  0  0  0  0
    8.2471   -9.0038   10.3607 O   0  0  0  0  0  0  0  0  0  0  0  0
  1  5  1  0
  1 34  1  0
  2  6  2  0
  2 28  1  0
  3 21  1  0
  3 22  2  3
  4  5  1  0
  5 21  1  0
  5 27  1  0
  6 10  1  0
  6 13  1  0
  7 17  2  0
  7 25  1  0
  7 26  1  0
  8 15  1  0
  9 30  2  0
  9 33  1  0
  9 34  1  0
  9 35  1  0
 10 24  1  0
 11 12  2  0
 12 18  1  0
 12 25  1  0
 13 29  2  0
 14 29  1  0
 15 16  1  0
 15 17  1  0
 16 22  1  0
 16 24  1  0
 17 19  1  0
 18 26  1  0
 19 20  1  0
 20 25  1  0
 22 31  1  0
 23 28  2  0
 23 29  1  0
 24 32  1  0
M  END
>  <ID>  (1) 
conformer_0

$$$$
