
     RDKit          3D

 30 30  0  0  0  0  0  0  0  0999 V2000
    7.1373   -8.8802   12.0160 O   0  0  0  0  0  0  0  0  0  0  0  0
    2.4012   -6.5647    9.5358 O   0  0  0  0  0  0  0  0  0  0  0  0
    4.3649  -10.6332   11.6861 C   0  0  0  0  0  0  0  0  0  0  0  0
    7.3517   -8.9243   13.3241 C   0  0  0  0  0  0  0  0  0  0  0  0
    8.5180   -8.9828   13.7881 O   0  0  0  0  0  0  0  0  0  0  0  0
    1.3230   -8.3838    8.5048 C   0  0  0  0  0  0  0  0  0  0  0  0
    5.7798  -10.7059    7.6628 C   0  0  0  0  0  0  0  0  0  0  0  0
    2.5093  -13.2437   12.4910 C   0  0  0  0  0  0  0  0  0  0  0  0
    6.2584   -8.9193   14.0425 O   0  0  0  0  0  0  0  0  0  0  0  0
    7.2015   -9.6389   10.9223 C   0  0  0  0  0  0  0  0  0  0  0  0
    1.1543   -9.8434    8.4458 C   0  0  0  0  0  0  0  0  0  0  0  0
    4.8694   -7.9605   11.0367 O   0  0  0  0  0  0  0  0  0  0  0  0
    1.8887  -11.2948    6.4696 C   0  0  0  0  0  0  0  0  0  0  0  0
    4.6604   -9.3863   10.7736 C   0  0  0  0  0  0  0  0  0  0  0  0
    5.9995   -9.8515    9.9960 C   0  0  0  0  0  0  0  0  0  0  0  0
    3.0504   -9.2628   10.1943 C   0  0  0  0  0  0  0  0  0  0  0  0
    5.1263  -10.3948    6.6398 O   0  0  0  0  0  0  0  0  0  0  0  0
    1.8166  -11.9481   11.9920 C   0  0  0  0  0  0  0  0  0  0  0  0
    3.8236  -11.7716   10.8094 C   0  0  0  0  0  0  0  0  0  0  0  0
    2.3486   -7.9908    9.5482 C   0  0  0  0  0  0  0  0  0  0  0  0
    4.8285  -10.9123   12.8163 O   0  0  0  0  0  0  0  0  0  0  0  0
    5.9807  -11.8436    8.1415 O   0  0  0  0  0  0  0  0  0  0  0  0
    8.3580   -9.7243   10.3812 O   0  0  0  0  0  0  0  0  0  0  0  0
    0.7856  -10.9393    7.5006 C   0  0  0  0  0  0  0  0  0  0  0  0
    1.9368  -10.4410    9.7224 S   0  0  0  0  0  0  0  0  0  0  0  0
    6.3915   -9.5507    8.5249 C   0  0  0  0  0  0  0  0  0  0  0  0
    2.3056  -11.7300   10.6053 C   0  0  0  0  0  0  0  0  0  0  0  0
    7.1277   -8.6452    7.4792 C   0  0  0  0  0  0  0  0  0  0  0  0
    0.5782   -7.5668    7.8202 O   0  0  0  0  0  0  0  0  0  0  0  0
    2.3576  -12.7889    6.6690 C   0  0  0  0  0  0  0  0  0  0  0  0
  1  4  1  0
  1 10  1  0
  2 20  1  0
  3 14  1  0
  3 19  1  0
  3 21  2  0
  4  5  2  0
  4  9  1  0
  6 11  1  0
  6 20  2  0
  6 29  1  0
  7 17  2  0
  7 22  1  0
  7 26  1  0
  8 18  1  0
 10 15  1  0
 10 23  2  0
 11 24  1  0
 11 25  1  0
 12 14  1  0
 13 24  1  0
 13 30  1  0
 14 15  1  0
 14 16  1  0
 15 26  1  0
 16 20  1  0
 18 27  1  0
 19 27  1  0
 25 27  1  0
 26 28  1  0
M  END
>  <ID>  (1) 
conformer_0

$$$$
