
     RDKit          3D

 32 33  0  0  0  0  0  0  0  0999 V2000
    8.9203   -9.8074    8.0526 O   0  0  0  0  0  1  0  0  0  0  0  0
    3.8469   -9.5828   11.8439 C   0  0  0  0  0  0  0  0  0  0  0  0
    0.3125   -7.5421    7.8659 C   0  0  0  0  0  0  0  0  0  0  0  0
    3.7557  -12.0352   11.5223 C   0  0  0  0  0  0  0  0  0  0  0  0
    4.2716   -6.5435   10.4614 O   0  0  0  0  0  0  0  0  0  0  0  0
    8.7296   -8.3864    8.7268 P   0  0  0  0  0  4  0  0  0  0  0  0
    2.5606  -10.3150   14.4490 C   0  0  0  0  0  0  0  0  0  0  0  0
    2.0695  -12.2841    6.4569 C   0  0  0  0  0  0  0  0  0  0  0  0
    4.6996  -11.5669   14.6894 N   0  0  0  0  0  0  0  0  0  0  0  0
    4.0395   -8.8570   10.5514 O   0  0  0  0  0  0  0  0  0  0  0  0
    3.7471   -7.6441    9.7411 C   0  0  0  0  0  0  0  0  0  0  0  0
    5.9734   -8.2426    8.6636 C   0  0  0  0  0  0  0  0  0  0  0  0
    2.2782   -7.4119    9.4622 C   0  0  0  0  0  0  0  0  0  0  0  0
    1.7437   -8.0196    8.1881 C   0  0  0  0  0  0  0  0  0  0  0  0
    1.7303   -9.5462    8.1573 C   0  0  0  0  0  0  0  0  0  0  0  0
    3.6929  -11.1598   13.9317 C   0  0  0  0  0  0  0  0  0  0  0  0
    2.7274  -12.1656   10.4732 C   0  0  0  0  0  0  0  0  0  0  0  0
    0.5688  -10.1054    7.3323 C   0  0  0  0  0  0  0  0  0  0  0  0
    4.2073  -10.9397   12.5610 C   0  0  0  0  0  0  0  0  0  0  0  0
    1.8549   -6.0499    9.5588 O   0  0  0  0  0  0  0  0  0  0  0  0
    9.9000   -8.0956    9.7143 O   0  0  0  0  0  0  0  0  0  0  0  0
    4.2674  -10.5390    8.1382 O   0  0  0  0  0  0  0  0  0  0  0  0
    5.9120  -11.5461   14.0261 C   0  0  0  0  0  0  0  0  0  0  0  0
    2.3897  -11.9412    7.8782 C   0  0  0  0  0  0  0  0  0  0  0  0
    5.6994  -11.0614   12.6911 C   0  0  0  0  0  0  0  0  0  0  0  0
    2.8201  -12.6408    9.1138 N   0  0  0  0  0  0  0  0  0  0  0  0
    4.5452   -7.7001    8.4409 C   0  0  0  0  0  0  0  0  0  0  0  0
    6.2812   -8.7369    7.2983 O   0  0  0  0  0  0  0  0  0  0  0  0
    8.6879   -7.2556    7.6532 O   0  0  0  0  0  0  0  0  0  0  0  0
    1.5221  -12.0623   10.8104 O   0  0  0  0  0  0  0  0  0  0  0  0
    7.2550   -8.4155    9.4924 O   0  0  0  0  0  0  0  0  0  0  0  0
    2.8960  -10.4728    7.9850 C   0  0  0  0  0  0  0  0  0  0  0  0
  1  6  2  0
  2 10  1  0
  2 19  1  0
  3 14  1  0
  4 17  1  0
  4 19  1  0
  5 11  1  0
  6 21  1  0
  6 29  1  0
  6 31  1  0
  7 16  1  0
  8 24  1  0
  9 16  1  0
  9 23  1  0
 10 11  1  0
 11 13  1  0
 11 27  1  0
 12 27  1  0
 12 28  2  0
 12 31  1  0
 13 14  1  0
 13 20  1  0
 14 15  1  0
 15 18  1  0
 15 32  1  0
 16 19  1  0
 17 26  1  0
 17 30  2  0
 19 25  1  0
 22 32  1  0
 23 25  1  0
 24 26  1  0
 24 32  1  0
M  END
>  <ID>  (1) 
conformer_0

$$$$
