
     RDKit          3D

 30 30  0  0  0  0  0  0  0  0999 V2000
    6.6149   -8.3547    9.9451 P   0  0  0  0  0  0  0  0  0  0  0  0
    0.8152   -7.4090    8.3992 C   0  0  0  0  0  0  0  0  0  0  0  0
    5.4744  -13.6561    8.4261 O   0  0  0  0  0  0  0  0  0  0  0  0
    2.4778  -11.3827   13.3769 N   0  0  0  0  0  0  0  0  0  0  0  0
    1.5733  -10.5650   12.7384 C   0  0  0  0  0  0  0  0  0  0  0  0
    3.3114  -12.6621    8.6778 C   0  0  0  0  0  0  0  0  0  0  0  0
    2.7967   -6.6616    9.6894 O   0  0  0  0  0  0  0  0  0  0  0  0
    1.7964   -9.9976    8.6467 C   0  0  0  0  0  0  0  0  0  0  0  0
    8.0508   -8.5060   13.1687 C   0  0  0  0  0  0  0  0  0  0  0  0
    5.9926   -9.8933   13.4667 C   0  0  0  0  0  0  0  0  0  0  0  0
    2.2986   -7.5342    8.7222 C   0  0  0  0  0  0  0  0  0  0  0  0
    3.7444  -11.0224   13.8647 C   0  0  0  0  0  0  0  0  0  0  0  0
    4.2739  -11.4528   14.9187 O   0  0  0  0  0  0  0  0  0  0  0  0
    6.7706   -9.0388   12.4843 C   0  0  0  0  0  0  0  0  0  0  0  0
    4.1422  -11.4674    9.1825 C   0  0  0  0  0  0  0  0  0  0  0  0
    2.9242   -8.9288    8.8906 C   0  0  0  0  0  0  0  0  0  0  0  0
    3.9979   -9.2042    7.7504 C   0  0  0  0  0  0  0  0  0  0  0  0
    4.7714  -10.5481    8.0942 C   0  0  0  0  0  0  0  0  0  0  0  0
    0.3878   -8.4450    7.2130 C   0  0  0  0  0  0  0  0  0  0  0  0
    6.0042   -8.8919   11.2495 O   0  0  0  0  0  0  0  0  0  0  0  0
    4.2288  -13.6414    7.9851 C   0  0  0  0  0  0  0  0  0  0  0  0
    0.0784  -10.3616   10.6951 C   0  0  0  0  0  0  0  0  0  0  0  0
    4.5124  -10.0911   13.0582 C   0  0  0  0  0  0  0  0  0  0  0  0
    0.4402   -9.8020    9.3998 C   0  0  0  0  0  0  0  0  0  0  0  0
    5.9257   -7.5298    9.0070 O   0  0  0  0  0  1  0  0  0  0  0  0
    7.9936   -8.6113    9.7880 O   0  0  0  0  0  1  0  0  0  0  0  0
    3.7331  -14.2269    6.8622 C   0  0  0  0  0  0  0  0  0  0  0  0
    1.3138   -9.4308   13.2707 O   0  0  0  0  0  0  0  0  0  0  0  0
    1.3271   -9.7443    7.1140 C   0  0  0  0  0  0  0  0  0  0  0  0
    1.0504  -11.0309   11.5117 C   0  0  0  0  0  0  0  0  0  0  0  0
  1 20  1  0
  1 25  1  0
  1 26  1  0
  2 11  1  0
  2 19  1  0
  3 21  1  0
  4  5  1  0
  4 12  1  0
  5 28  2  0
  5 30  1  0
  6 15  1  0
  6 21  1  0
  7 11  1  0
  8 16  1  0
  8 24  1  0
  8 29  1  0
  9 14  1  0
 10 14  1  0
 10 23  1  0
 11 16  1  0
 12 13  2  0
 12 23  1  0
 14 20  1  0
 15 18  1  0
 16 17  1  0
 17 18  1  0
 19 29  1  0
 21 27  2  0
 22 24  2  3
 22 30  1  0
M  END
>  <ID>  (1) 
conformer_0

$$$$
