
     RDKit          3D

 33 35  0  0  0  0  0  0  0  0999 V2000
    7.5479   -9.7112   12.9432 C   0  0  0  0  0  0  0  0  0  0  0  0
    2.7099  -12.7063    5.1412 C   0  0  0  0  0  0  0  0  0  0  0  0
    1.3149  -10.3637   12.0266 C   0  0  0  0  0  0  0  0  0  0  0  0
    1.5972   -8.3996    8.3660 C   0  0  0  0  0  0  0  0  0  0  0  0
    3.0929  -12.3156    6.5135 C   0  0  0  0  0  0  0  0  0  0  0  0
    7.5725   -8.2012    9.3803 C   0  0  0  0  0  0  0  0  0  0  0  0
    4.5267  -11.2889    9.3752 O   0  0  0  0  0  0  0  0  0  0  0  0
    1.9334  -12.0365    7.4084 C   0  0  0  0  0  0  0  0  0  0  0  0
    6.1605  -10.3461   10.9962 C   0  0  0  0  0  0  0  0  0  0  0  0
    7.8555   -8.6752   10.6228 C   0  0  0  0  0  0  0  0  0  0  0  0
    6.8025   -8.7388   13.7460 O   0  0  0  0  0  0  0  0  0  0  0  0
    3.0587   -6.8517    9.5616 C   0  0  0  0  0  0  0  0  0  0  0  0
    4.2381  -12.9283    6.9373 O   0  0  0  0  0  0  0  0  0  0  0  0
    1.4547   -9.7563    7.6771 C   0  0  0  0  0  0  0  0  0  0  0  0
    7.4287  -11.1246   13.3967 C   0  0  0  0  0  0  0  0  0  0  0  0
    1.4553  -11.2493    9.6741 C   0  0  0  0  0  0  0  0  0  0  0  0
    0.2420  -11.4165    9.4801 O   0  0  0  0  0  0  0  0  0  0  0  0
    6.4675   -8.3674    8.5604 C   0  0  0  0  0  0  0  0  0  0  0  0
    2.0320   -6.1107    9.5328 O   0  0  0  0  0  0  0  0  0  0  0  0
    3.0412   -8.1189    8.6893 C   0  0  0  0  0  0  0  0  0  0  0  0
    1.6178  -10.3984   13.3694 C   0  0  0  0  0  0  0  0  0  0  0  0
    4.0855   -6.5555   10.1361 O   0  0  0  0  0  0  0  0  0  0  0  0
    5.4763  -10.2385    9.8115 C   0  0  0  0  0  0  0  0  0  0  0  0
    3.6007  -10.6229    8.4544 C   0  0  0  0  0  0  0  0  0  0  0  0
    7.1936   -9.5371   11.4861 C   0  0  0  0  0  0  0  0  0  0  0  0
    2.1651  -10.8771    8.4562 N   0  0  0  0  0  0  0  0  0  0  0  0
    0.3795   -7.6075    8.0580 C   0  0  0  0  0  0  0  0  0  0  0  0
    4.0702   -9.2027    8.2503 C   0  0  0  0  0  0  0  0  0  0  0  0
    2.4910  -11.3796   13.8970 C   0  0  0  0  0  0  0  0  0  0  0  0
    5.3968   -9.2005    8.8897 C   0  0  0  0  0  0  0  0  0  0  0  0
    2.6551  -12.3073   11.6530 C   0  0  0  0  0  0  0  0  0  0  0  0
    3.0341  -12.3367   12.9866 C   0  0  0  0  0  0  0  0  0  0  0  0
    1.8187  -11.3120   11.1350 C   0  0  0  0  0  0  0  0  0  0  0  0
  1 11  1  0
  1 15  1  0
  1 25  1  0
  2  5  1  0
  3 21  2  0
  3 33  1  0
  4 14  1  0
  4 20  1  0
  4 27  1  0
  5  8  1  0
  5 13  1  0
  6 10  2  0
  6 18  1  0
  7 23  1  0
  7 24  1  0
  8 26  1  0
  9 23  2  0
  9 25  1  0
 10 25  1  0
 12 19  2  0
 12 20  1  0
 12 22  1  0
 16 17  2  0
 16 26  1  0
 16 33  1  0
 18 30  1  0
 20 28  1  0
 21 29  1  0
 23 30  1  0
 24 26  1  0
 24 28  1  0
 28 30  1  0
 29 32  1  0
 31 32  2  0
 31 33  1  0
M  END
>  <ID>  (1) 
conformer_0

$$$$
