
     RDKit          3D

 24 25  0  0  0  0  0  0  0  0999 V2000
    2.5423  -11.3699   14.2748 O   0  0  0  0  0  0  0  0  0  0  0  0
    5.6203   -8.8707   13.1471 O   0  0  0  0  0  0  0  0  0  0  0  0
    2.2711   -8.8683    9.8286 C   0  0  0  0  0  0  0  0  0  0  0  0
    1.7721   -9.7900    8.8488 O   0  0  0  0  0  0  0  0  0  0  0  0
    0.4034   -8.1518    8.0000 O   0  0  0  0  0  0  0  0  0  0  0  0
    5.0651   -9.6007   12.1685 C   0  0  0  0  0  0  0  0  0  0  0  0
    3.8414  -10.3976   12.6360 C   0  0  0  0  0  0  0  0  0  0  0  0
    3.1116  -10.6633   11.4051 O   0  0  0  0  0  0  0  0  0  0  0  0
    3.4013   -9.6254   10.5261 C   0  0  0  0  0  0  0  0  0  0  0  0
    4.7839   -8.9007   10.7136 C   0  0  0  0  0  0  0  0  0  0  0  0
    4.4193   -7.6868    9.6979 C   0  0  0  0  0  0  0  0  0  0  0  0
    6.4009   -8.5065   10.6794 C   0  0  0  0  0  0  0  0  0  0  0  0
    2.9635   -7.6478    9.1317 C   0  0  0  0  0  0  0  0  0  0  0  0
    2.2657  -12.1307    6.0694 C   0  0  0  0  0  0  0  0  0  0  0  0
    1.7646  -10.7372    6.1678 C   0  0  0  0  0  0  0  0  0  0  0  0
    7.4457   -8.8504   11.4576 O   0  0  0  0  0  0  0  0  0  0  0  0
    2.2123   -6.4719    9.4921 O   0  0  0  0  0  0  0  0  0  0  0  0
    2.1017  -12.8091    7.2560 O   0  0  0  0  0  0  0  0  0  0  0  0
    4.3588  -10.5040   14.9886 O   0  0  0  0  0  0  0  0  0  0  0  0
    4.6340   -6.4189   10.3256 O   0  0  0  0  0  0  0  0  0  0  0  0
    3.5585  -10.7126   14.0485 C   0  0  0  0  0  0  0  0  0  0  0  0
    6.8255   -8.1184    9.4450 O   0  0  0  0  0  0  0  0  0  0  0  0
    0.7100   -9.4331    7.9461 C   0  0  0  0  0  0  0  0  0  0  0  0
    0.5260  -10.7572    7.1393 C   0  0  0  0  0  0  0  0  0  0  0  0
  1 21  2  0
  2  6  1  0
  3  4  1  0
  3  9  1  0
  3 13  1  0
  4 23  1  0
  5 23  2  0
  6  7  1  0
  6 10  1  0
  7  8  1  0
  7 21  1  0
  8  9  1  0
  9 10  1  0
 10 11  1  0
 10 12  1  0
 11 13  1  0
 11 20  1  0
 12 16  2  0
 12 22  1  0
 13 17  1  0
 14 15  1  0
 14 18  1  0
 15 24  1  0
 19 21  1  0
 23 24  1  0
M  END
>  <ID>  (1) 
conformer_0

$$$$
