
     RDKit          3D

 20 19  0  0  0  0  0  0  0  0999 V2000
    4.2264  -10.5791   10.8765 C   0  0  0  0  0  0  0  0  0  0  0  0
    1.8921   -6.5586    9.1591 O   0  0  0  0  0  0  0  0  0  0  0  0
    3.9137  -10.8500    9.4235 O   0  0  0  0  0  0  0  0  0  0  0  0
    1.0347   -9.5565    7.3900 O   0  0  0  0  0  0  0  0  0  0  0  0
    0.0923   -7.4977    7.3941 N   0  0  0  0  0  0  0  0  0  0  0  0
    7.5744   -9.6665   12.1101 C   0  0  0  0  0  0  0  0  0  0  0  0
    5.2107  -11.8113   13.5426 O   0  0  0  0  0  1  0  0  0  0  0  0
    2.2111  -12.1480    6.8841 N   0  0  0  0  0  0  0  0  0  0  0  0
    7.1056  -10.2629   13.3551 O   0  0  0  0  0  0  0  0  0  0  0  0
    5.6150  -10.4631   13.5350 S   0  0  0  0  0  3  0  0  0  0  0  0
    4.5584   -7.0166   10.1651 O   0  0  0  0  0  0  0  0  0  0  0  0
    0.9601   -8.3964    7.9235 C   0  0  0  0  0  0  0  0  0  0  0  0
    4.6892   -9.4429   13.6886 O   0  0  0  0  0  0  0  0  0  0  0  0
    4.9905   -9.2451   10.8877 C   0  0  0  0  0  0  0  0  0  0  0  0
    2.9088  -12.5991    8.0675 C   0  0  0  0  0  0  0  0  0  0  0  0
    3.4926  -12.2848    9.3702 C   0  0  0  0  0  0  0  0  0  0  0  0
    6.4489   -9.0567   11.3194 C   0  0  0  0  0  0  0  0  0  0  0  0
    2.7276   -8.6769    9.8339 C   0  0  0  0  0  0  0  0  0  0  0  0
    4.1948   -8.3425    9.9682 C   0  0  0  0  0  0  0  0  0  0  0  0
    1.8177   -7.9115    8.9454 C   0  0  0  0  0  0  0  0  0  0  0  0
  1  3  1  0
  1 14  1  0
  2 20  1  0
  3 16  1  0
  4 12  2  0
  5 12  1  0
  6  9  1  0
  6 17  1  0
  7 10  2  0
  8 15  1  0
  9 10  1  0
 10 13  1  0
 11 19  1  0
 12 20  1  0
 14 17  1  0
 14 19  1  0
 15 16  1  0
 18 19  1  0
 18 20  1  0
M  END
>  <ID>  (1) 
conformer_0

$$$$
