
     RDKit          3D

 32 33  0  0  0  0  0  0  0  0999 V2000
    6.8228   -8.6224    8.4497 O   0  0  0  0  0  0  0  0  0  0  0  0
    3.4702  -10.1566    8.9242 C   0  0  0  0  0  0  0  0  0  0  0  0
    2.0148  -12.5016    6.1014 C   0  0  0  0  0  0  0  0  0  0  0  0
    3.4664  -12.5591    8.0183 C   0  0  0  0  0  0  0  0  0  0  0  0
    1.8525  -10.9996   13.7492 O   0  0  0  0  0  0  0  0  0  0  0  0
    3.1509  -13.2392    6.6988 C   0  0  0  0  0  0  0  0  0  0  0  0
    2.5364  -11.7401   13.0012 C   0  0  0  0  0  0  0  0  0  0  0  0
    6.5289  -10.7447   12.4283 C   0  0  0  0  0  0  0  0  0  0  0  0
    4.7996   -7.0453    9.9837 O   0  0  0  0  0  0  0  0  0  0  0  0
    2.8143  -11.2581   11.6345 C   0  0  0  0  0  0  0  0  0  0  0  0
    3.0138  -11.0938    7.7634 C   0  0  0  0  0  0  0  0  0  0  0  0
    5.5157   -7.1485    7.2685 O   0  0  0  0  0  0  0  0  0  0  0  0
    5.0241  -10.6382   12.5112 C   0  0  0  0  0  0  0  0  0  0  0  0
    4.2607  -11.2838   11.3479 C   0  0  0  0  0  0  0  0  0  0  0  0
    4.5105   -9.4585   12.9586 O   0  0  0  0  0  0  0  0  0  0  0  0
    1.5189   -8.5440    9.1781 C   0  0  0  0  0  0  0  0  0  0  0  0
    6.5995  -11.1636   14.6728 O   0  0  0  0  0  0  0  0  0  0  0  0
    1.9040  -10.2983   11.0197 C   0  0  0  0  0  0  0  0  0  0  0  0
    3.8880   -7.6301    9.0681 C   0  0  0  0  0  0  0  0  0  0  0  0
    4.4607   -8.9489    8.4776 C   0  0  0  0  0  0  0  0  0  0  0  0
   -0.0173   -7.7999    7.5501 C   0  0  0  0  0  0  0  0  0  0  0  0
    2.3822   -7.0150   10.8731 O   0  0  0  0  0  0  0  0  0  0  0  0
    2.9887  -12.9263   13.1564 O   0  0  0  0  0  0  0  0  0  0  0  0
    7.0384  -10.2332   13.7488 C   0  0  0  0  0  0  0  0  0  0  0  0
    2.2689   -9.7229    9.6916 C   0  0  0  0  0  0  0  0  0  0  0  0
    2.4286   -7.3081    9.4186 C   0  0  0  0  0  0  0  0  0  0  0  0
    7.5461   -8.3867   12.3384 O   0  0  0  0  0  0  0  0  0  0  0  0
    1.1013   -8.7436    7.7092 C   0  0  0  0  0  0  0  0  0  0  0  0
    1.6315  -11.3949    7.0805 C   0  0  0  0  0  0  0  0  0  0  0  0
    7.8443   -9.0074   13.5500 C   0  0  0  0  0  0  0  0  0  0  0  0
    5.8107   -8.2743    7.8074 C   0  0  0  0  0  0  0  0  0  0  0  0
    0.3748   -6.5794    8.1963 O   0  0  0  0  0  0  0  0  0  0  0  0
  1 31  2  0
  2 11  1  0
  2 20  1  0
  2 25  1  0
  3  6  1  0
  3 29  1  0
  4  6  1  0
  4 11  1  0
  5  7  2  0
  7 10  1  0
  7 23  1  0
  8 13  1  0
  8 24  1  0
  9 19  1  0
 10 14  1  0
 10 18  1  0
 11 29  1  0
 12 31  1  0
 13 14  1  0
 13 15  1  0
 16 25  1  0
 16 26  1  0
 16 28  1  0
 17 24  1  0
 18 25  2  3
 19 20  1  0
 19 26  1  0
 20 31  1  0
 21 28  1  0
 21 32  1  0
 22 26  1  0
 24 30  1  0
 27 30  1  0
M  END
>  <ID>  (1) 
conformer_0

$$$$
