
     RDKit          3D

 28 29  0  0  0  0  0  0  0  0999 V2000
    4.1823   -9.5168    9.6247 O   0  0  0  0  0  0  0  0  0  0  0  0
    4.0610   -7.3171    8.9708 C   0  0  0  0  0  0  0  0  0  0  0  0
    4.7852   -8.3069    9.8635 C   0  0  0  0  0  0  0  0  0  0  0  0
    7.2967   -8.4325    9.4823 O   0  0  0  0  0  0  0  0  0  0  0  0
    4.4687   -7.3251    7.7327 O   0  0  0  0  0  0  0  0  0  0  0  0
    4.3800  -11.8102   12.6519 C   0  0  0  0  0  0  0  0  0  0  0  0
    2.5023  -13.5290   11.8830 Cl  0  0  0  0  0  0  0  0  0  0  0  0
    3.1670  -11.0906    8.2352 C   0  0  0  0  0  0  0  0  0  0  0  0
    3.0184   -9.7864    8.7363 C   0  0  0  0  0  0  0  0  0  0  0  0
    1.8430   -9.0357    8.4179 C   0  0  0  0  0  0  0  0  0  0  0  0
    6.2890   -8.5615   10.5585 C   0  0  0  0  0  0  0  0  0  0  0  0
    7.2153   -9.6628   13.4584 C   0  0  0  0  0  0  0  0  0  0  0  0
    0.6012   -9.5184    8.6940 C   0  0  0  0  0  0  0  0  0  0  0  0
    6.4669   -7.5860   11.5596 O   0  0  0  0  0  0  0  0  0  0  0  0
    0.1262  -10.8095    8.7137 C   0  0  0  0  0  0  0  0  0  0  0  0
    3.2456   -6.5005    9.5625 O   0  0  0  0  0  0  0  0  0  0  0  0
    3.0260  -12.0926   12.6263 C   0  0  0  0  0  0  0  0  0  0  0  0
    0.8612  -11.8982    8.3328 C   0  0  0  0  0  0  0  0  0  0  0  0
    6.2483  -10.0406   11.1542 C   0  0  0  0  0  0  0  0  0  0  0  0
    2.0835  -11.1417   13.1147 C   0  0  0  0  0  0  0  0  0  0  0  0
    1.8286   -7.8343    7.7358 O   0  0  0  0  0  0  0  0  0  0  0  0
    3.9716   -9.6816   13.6968 C   0  0  0  0  0  0  0  0  0  0  0  0
    0.6695   -7.0348    8.1153 C   0  0  0  0  0  0  0  0  0  0  0  0
    4.8516  -10.5802   13.0644 C   0  0  0  0  0  0  0  0  0  0  0  0
    6.1618  -10.1695   12.6387 C   0  0  0  0  0  0  0  0  0  0  0  0
    8.6641   -9.8338   12.9249 C   0  0  0  0  0  0  0  0  0  0  0  0
    2.1737  -12.0049    8.0505 C   0  0  0  0  0  0  0  0  0  0  0  0
    2.5762   -9.9377   13.6844 C   0  0  0  0  0  0  0  0  0  0  0  0
  1  3  1  0
  1  9  1  0
  2  3  1  0
  2  5  2  0
  2 16  1  0
  3 11  1  0
  4 11  1  0
  6 17  2  0
  6 24  1  0
  7 17  1  0
  8  9  1  0
  8 27  1  0
  9 10  1  0
 10 13  1  0
 10 21  1  0
 11 14  1  0
 11 19  1  0
 12 25  1  0
 12 26  1  0
 13 15  2  0
 15 18  1  0
 17 20  1  0
 18 27  2  0
 19 25  1  0
 20 28  1  0
 21 23  1  0
 22 24  1  0
 22 28  2  0
 24 25  1  0
M  END
>  <ID>  (1) 
conformer_0

$$$$
