
     RDKit          3D

 35 37  0  0  0  0  0  0  0  0999 V2000
    0.4332   -9.1097    7.7250 O   0  0  0  0  0  0  0  0  0  0  0  0
    7.0022   -8.7115    9.0500 C   0  0  0  0  0  0  0  0  0  0  0  0
    6.8233  -12.1817   10.8965 C   0  0  0  0  0  0  0  0  0  0  0  0
    3.9347   -8.6806    8.7736 C   0  0  0  0  0  0  0  0  0  0  0  0
    1.4659  -11.1066   11.9245 C   0  0  0  0  0  0  0  0  0  0  0  0
    2.3900  -12.4141    5.7095 C   0  0  0  0  0  0  0  0  0  0  0  0
    3.0479  -10.7801    7.4060 C   0  0  0  0  0  0  0  0  0  0  0  0
    2.5340   -6.5945    9.3144 O   0  0  0  0  0  0  0  0  0  0  0  0
    2.7793   -9.5276    8.1502 C   0  0  0  0  0  0  0  0  0  0  0  0
    0.1416   -7.7500    7.6754 C   0  0  0  0  0  0  0  0  0  0  0  0
    7.0360   -7.4357    8.6133 O   0  0  0  0  0  0  0  0  0  0  0  0
    0.9745  -10.1406    9.6933 C   0  0  0  0  0  0  0  0  0  0  0  0
    6.8737  -11.2375    8.5929 C   0  0  0  0  0  0  0  0  0  0  0  0
    1.3928   -9.5282    8.5934 C   0  0  0  0  0  0  0  0  0  0  0  0
    7.4093   -9.9103    8.0250 C   0  0  0  0  0  0  0  0  0  0  0  0
    5.0141  -13.9459    8.0469 C   0  0  0  0  0  0  0  0  0  0  0  0
    7.9608   -8.7574   10.1072 O   0  0  0  0  0  0  0  0  0  0  0  0
    4.6559  -11.9531   14.7792 C   0  0  0  0  0  0  0  0  0  0  0  0
    6.1958  -11.2025    9.9423 C   0  0  0  0  0  0  0  0  0  0  0  0
    4.1124  -12.9432    7.3302 C   0  0  0  0  0  0  0  0  0  0  0  0
    5.3863   -9.0157    9.2126 N   0  0  0  0  0  0  0  0  0  0  0  0
    4.3225   -6.8588   10.3808 O   0  0  0  0  0  0  0  0  0  0  0  0
    0.9253  -10.7263   10.7823 C   0  0  0  0  0  0  0  0  0  0  0  0
    7.0790  -12.1190   13.8909 C   0  0  0  0  0  0  0  0  0  0  0  0
    4.7602  -10.4071   14.7005 C   0  0  0  0  0  0  0  0  0  0  0  0
    2.5342  -10.9727   12.6418 C   0  0  0  0  0  0  0  0  0  0  0  0
    2.2596  -11.1820    6.3003 C   0  0  0  0  0  0  0  0  0  0  0  0
    3.5639   -7.3375    9.4679 C   0  0  0  0  0  0  0  0  0  0  0  0
    4.7111   -9.9763   13.3938 O   0  0  0  0  0  0  0  0  0  0  0  0
    5.6813  -12.6501   13.8938 C   0  0  0  0  0  0  0  0  0  0  0  0
    3.3756  -13.3412    6.2175 C   0  0  0  0  0  0  0  0  0  0  0  0
    4.2513  -10.1605   11.1820 C   0  0  0  0  0  0  0  0  0  0  0  0
    5.3672  -10.0351   10.3140 C   0  0  0  0  0  0  0  0  0  0  0  0
    3.9912  -11.6823    7.8155 C   0  0  0  0  0  0  0  0  0  0  0  0
    3.8140  -10.4284   12.4457 C   0  0  0  0  0  0  0  0  0  0  0  0
  1 10  1  0
  1 14  1  0
  2 11  1  0
  2 15  1  0
  2 17  1  0
  2 21  1  0
  3 19  1  0
  4  9  1  0
  4 21  1  0
  4 28  1  0
  5 23  1  0
  5 26  2  0
  6 27  2  0
  6 31  1  0
  7  9  1  0
  7 27  1  0
  7 34  2  0
  8 28  2  0
  9 14  1  0
 12 14  2  0
 12 23  2  0
 13 15  1  0
 13 19  1  0
 16 20  1  0
 18 25  1  0
 18 30  1  0
 19 33  1  0
 20 31  2  0
 20 34  1  0
 21 33  1  0
 22 28  1  0
 24 30  1  0
 25 29  1  0
 26 35  1  0
 29 35  1  0
 32 33  1  0
 32 35  1  0
M  END
>  <ID>  (1) 
conformer_0

$$$$
