
     RDKit          3D

 25 25  0  0  0  0  0  0  0  0999 V2000
    2.5075  -12.2342    5.9808 C   0  0  0  0  0  0  0  0  0  0  0  0
    1.7855  -10.4732    9.8962 C   0  0  0  0  0  0  0  0  0  0  0  0
    2.2048  -10.1763   11.2026 N   0  0  0  0  0  0  0  0  0  0  0  0
    3.6279   -8.7247   10.1435 C   0  0  0  0  0  0  0  0  0  0  0  0
    8.6270   -8.9138   13.7250 C   0  0  0  0  0  0  0  0  0  0  0  0
    2.6981  -13.3417    6.8850 O   0  0  0  0  0  0  0  0  0  0  0  0
    1.4309   -6.0272    8.9973 O   0  0  0  0  0  0  0  0  0  0  0  0
    1.9073   -9.7595    8.6174 C   0  0  0  0  0  0  0  0  0  0  0  0
    3.7032   -6.4018   10.4817 O   0  0  0  0  0  0  0  0  0  0  0  0
    5.3837   -9.9410   12.9721 N   0  0  0  0  0  0  0  0  0  0  0  0
    4.7364   -8.9780   10.7355 O   0  0  0  0  0  0  0  0  0  0  0  0
    4.1768  -10.3527   12.5693 C   0  0  0  0  0  0  0  0  0  0  0  0
    1.6034  -11.2457    6.6932 C   0  0  0  0  0  0  0  0  0  0  0  0
    1.2194  -11.6046    9.7802 O   0  0  0  0  0  0  0  0  0  0  0  0
    7.6080   -9.9362   13.9113 C   0  0  0  0  0  0  0  0  0  0  0  0
    2.1121   -7.1854    8.9003 C   0  0  0  0  0  0  0  0  0  0  0  0
    6.7255  -10.1844   12.8036 C   0  0  0  0  0  0  0  0  0  0  0  0
    8.6689   -8.3805   12.4666 O   0  0  0  0  0  0  0  0  0  0  0  0
    3.5952   -9.6007   11.3901 C   0  0  0  0  0  0  0  0  0  0  0  0
    1.4088   -8.3738    8.3638 C   0  0  0  0  0  0  0  0  0  0  0  0
    3.5327  -11.2249   13.0918 O   0  0  0  0  0  0  0  0  0  0  0  0
    2.4590  -10.4697    7.5662 O   0  0  0  0  0  0  0  0  0  0  0  0
    2.8744   -7.4700   10.1643 C   0  0  0  0  0  0  0  0  0  0  0  0
    7.1007  -10.8616   11.8605 O   0  0  0  0  0  0  0  0  0  0  0  0
    0.9303   -8.1690    7.0662 O   0  0  0  0  0  0  0  0  0  0  0  0
  1  6  1  0
  1 13  1  0
  2  3  1  0
  2  8  1  0
  2 14  2  0
  3 19  1  0
  4 11  1  0
  4 19  1  0
  4 23  1  0
  5 15  1  0
  5 18  1  0
  7 16  1  0
  8 20  1  0
  8 22  1  0
  9 23  1  0
 10 12  1  0
 10 17  1  0
 12 19  1  0
 12 21  2  0
 13 22  1  0
 15 17  1  0
 16 20  1  0
 16 23  1  0
 17 24  2  0
 20 25  1  0
M  END
>  <ID>  (1) 
conformer_0

$$$$
