
     RDKit          3D

 25 28  0  0  0  0  0  0  0  0999 V2000
    2.1116  -11.0863    7.4943 C   0  0  0  0  0  0  0  0  0  0  0  0
    4.3428   -8.0909    8.8843 N   0  0  0  0  0  0  0  0  0  0  0  0
    7.7386  -10.2350   13.9258 O   0  0  0  0  0  0  0  0  0  0  0  0
    2.4728  -12.3401    7.4020 O   0  0  0  0  0  0  0  0  0  0  0  0
    0.7590  -10.7825    6.9226 C   0  0  0  0  0  0  0  0  0  0  0  0
    0.4442   -9.2902    7.0741 C   0  0  0  0  0  0  0  0  0  0  0  0
    5.2094   -7.3450   10.7756 O   0  0  0  0  0  0  0  0  0  0  0  0
    2.5073  -10.0094   12.3356 C   0  0  0  0  0  0  0  0  0  0  0  0
    6.3166   -9.3708   10.7805 C   0  0  0  0  0  0  0  0  0  0  0  0
    3.2860  -10.8930   14.4061 C   0  0  0  0  0  0  0  0  0  0  0  0
    2.7078   -9.9488    8.2992 C   0  0  0  0  0  0  0  0  0  0  0  0
    2.2252  -10.4366   13.5864 C   0  0  0  0  0  0  0  0  0  0  0  0
    6.2625   -9.9915   12.1933 C   0  0  0  0  0  0  0  0  0  0  0  0
    3.7931  -10.0004   11.8440 C   0  0  0  0  0  0  0  0  0  0  0  0
    1.9889   -6.3902    9.3323 O   0  0  0  0  0  0  0  0  0  0  0  0
    4.8862  -10.2669   12.6783 C   0  0  0  0  0  0  0  0  0  0  0  0
    0.5933   -8.0616    8.1229 C   0  0  0  0  0  0  0  0  0  0  0  0
    5.0216   -8.6089   10.1889 C   0  0  0  0  0  0  0  0  0  0  0  0
    4.0267   -9.7274   10.4594 C   0  0  0  0  0  0  0  0  0  0  0  0
    7.3371   -9.4830   13.0538 C   0  0  0  0  0  0  0  0  0  0  0  0
    7.7956   -8.3580   12.9064 O   0  0  0  0  0  0  0  0  0  0  0  0
    2.9676   -8.4434    8.5363 C   0  0  0  0  0  0  0  0  0  0  0  0
    3.6427  -10.6145    9.3594 C   0  0  0  0  0  0  0  0  0  0  0  0
    1.7736   -7.7345    9.0884 C   0  0  0  0  0  0  0  0  0  0  0  0
    4.6248  -10.7909   13.9302 C   0  0  0  0  0  0  0  0  0  0  0  0
  1  4  1  0
  1  5  1  0
  1 11  1  0
  2 18  1  0
  2 22  1  0
  3 20  2  0
  5  6  1  0
  6 17  1  0
  7 18  1  0
  8 12  1  0
  8 14  2  0
  9 13  1  0
  9 18  1  0
 10 12  2  0
 10 25  1  0
 11 22  1  0
 11 23  1  0
 13 16  1  0
 13 20  1  0
 14 16  1  0
 14 19  1  0
 15 24  1  0
 16 25  2  0
 17 24  1  0
 18 19  1  0
 19 23  1  0
 20 21  1  0
 22 24  1  0
M  END
>  <ID>  (1) 
conformer_0

$$$$
