
     RDKit          3D

 25 25  0  0  0  0  0  0  0  0999 V2000
    4.2115   -8.2306    7.2816 O   0  0  0  0  0  0  0  0  0  0  0  0
    6.6901   -7.8974    9.8249 O   0  0  0  0  0  0  0  0  0  0  0  0
    3.4373   -7.9833   10.7362 O   0  0  0  0  0  0  0  0  0  0  0  0
   -0.1161  -10.3593    9.4533 O   0  0  0  0  0  0  0  0  0  0  0  0
    4.1946  -11.1380   12.0016 C   0  0  0  0  0  0  0  0  0  0  0  0
    1.8199  -11.9100    7.2247 S   0  0  0  0  0  0  0  0  0  0  0  0
    6.1190   -8.0680    8.7094 C   0  0  0  0  0  0  0  0  0  0  0  0
    1.1722  -10.1000    9.0995 C   0  0  0  0  0  0  0  0  0  0  0  0
    6.6321   -8.9076    7.8525 O   0  0  0  0  0  0  0  0  0  0  0  0
    1.3370   -8.1424    7.6287 C   0  0  0  0  0  0  0  0  0  0  0  0
   -0.3309   -7.6377    7.8723 S   0  0  0  0  0  0  0  0  0  0  0  0
    3.0682   -7.6551    9.3698 C   0  0  0  0  0  0  0  0  0  0  0  0
    3.2750  -11.7192   12.9528 C   0  0  0  0  0  0  0  0  0  0  0  0
    4.5786   -7.5452    8.5195 C   0  0  0  0  0  0  0  0  0  0  0  0
    2.6174  -11.7909   10.1988 C   0  0  0  0  0  0  0  0  0  0  0  0
    1.8657   -8.7190    9.0171 C   0  0  0  0  0  0  0  0  0  0  0  0
    5.2413   -9.9040   13.7905 C   0  0  0  0  0  0  0  0  0  0  0  0
    3.3163  -11.3236   14.2818 C   0  0  0  0  0  0  0  0  0  0  0  0
    4.2832  -10.3892   14.7025 C   0  0  0  0  0  0  0  0  0  0  0  0
    3.9971  -11.3884   10.5502 C   0  0  0  0  0  0  0  0  0  0  0  0
    2.3862   -6.3892    9.4440 O   0  0  0  0  0  0  0  0  0  0  0  0
    2.3768  -12.6706   12.6275 O   0  0  0  0  0  0  0  0  0  0  0  0
    4.7792   -6.1061    8.5671 O   0  0  0  0  0  0  0  0  0  0  0  0
    2.0175  -11.3097    8.9117 C   0  0  0  0  0  0  0  0  0  0  0  0
    5.2268  -10.3290   12.4660 C   0  0  0  0  0  0  0  0  0  0  0  0
  1 14  1  0
  2  7  2  0
  3 12  1  0
  4  8  1  0
  5 13  1  0
  5 20  1  0
  5 25  1  0
  6 24  1  0
  7  9  1  0
  7 14  1  0
  8 16  1  0
  8 24  1  0
 10 11  1  0
 10 16  1  0
 12 14  1  0
 12 16  1  0
 12 21  1  0
 13 18  2  0
 13 22  1  0
 14 23  1  0
 15 20  1  0
 15 24  1  0
 17 19  1  0
 17 25  2  0
 18 19  1  0
M  END
>  <ID>  (1) 
conformer_0

$$$$
