
     RDKit          3D

 37 41  0  0  0  0  0  0  0  0999 V2000
    5.6443   -7.3511    9.5271 O   0  0  0  0  0  0  0  0  0  0  0  0
    2.2905   -9.8282   12.7096 C   0  0  0  0  0  0  0  0  0  0  0  0
    1.0898   -9.5583   10.3784 O   0  0  0  0  0  0  0  0  0  0  0  0
    3.4768   -7.4547    8.3842 C   0  0  0  0  0  0  0  0  0  0  0  0
    3.4461  -12.7443    7.9073 C   0  0  0  0  0  0  0  0  0  0  0  0
    8.3350  -12.1749   12.6409 C   0  0  0  0  0  0  0  0  0  0  0  0
    4.1134  -12.5695   13.3547 O   0  0  0  0  0  1  0  0  0  0  0  0
    1.3635   -8.5454    8.3419 C   0  0  0  0  0  0  0  0  0  0  0  0
    7.3734  -12.0214   13.8374 O   0  0  0  0  0  0  0  0  0  0  0  0
    9.2105   -9.1340   11.4266 O   0  0  0  0  0  0  0  0  0  0  0  0
    3.7686  -11.4280    8.5519 O   0  0  0  0  0  0  0  0  0  0  0  0
    6.7136   -9.6998   13.6105 C   0  0  0  0  0  0  0  0  0  0  0  0
    0.5547   -9.7240    8.9119 C   0  0  0  0  0  0  0  0  0  0  0  0
    8.5920   -9.9131   12.1542 C   0  0  0  0  0  0  0  0  0  0  0  0
    3.6794  -10.1091   12.9993 N   0  0  0  0  0  0  0  0  0  0  0  0
    8.2353   -9.5455   13.5304 C   0  0  0  0  0  0  0  0  0  0  0  0
    2.8217   -8.9247    8.5541 C   0  0  0  0  0  0  0  0  0  0  0  0
    5.1231   -7.7120    8.3296 C   0  0  0  0  0  0  0  0  0  0  0  0
    6.0068  -12.3720   10.7139 C   0  0  0  0  0  0  0  0  0  0  0  0
    7.8822  -11.0785   11.6326 N   0  0  0  0  0  0  0  0  0  0  0  0
    6.2330  -11.1375   13.3171 C   0  0  0  0  0  0  0  0  0  0  0  0
    1.2991  -11.5364   11.4670 O   0  0  0  0  0  0  0  0  0  0  0  0
    5.4804   -7.0577    7.2112 O   0  0  0  0  0  0  0  0  0  0  0  0
    4.3532  -13.6962    8.5510 N   0  0  0  0  0  0  0  0  0  0  0  0
    1.9894  -12.1580    6.8623 S   0  0  0  0  0  0  0  0  0  0  0  0
    3.8272  -15.0370    8.5737 C   0  0  0  0  0  0  0  0  0  0  0  0
    1.7548  -10.2968   11.3536 C   0  0  0  0  0  0  0  0  0  0  0  0
    4.5159  -11.2420   13.7336 S   0  0  0  0  0  4  0  0  0  0  0  0
    0.6882   -7.6014    7.7731 O   0  0  0  0  0  0  0  0  0  0  0  0
    2.7200  -10.4665    8.7635 C   0  0  0  0  0  0  0  0  0  0  0  0
    4.4576  -10.9980   15.1233 O   0  0  0  0  0  1  0  0  0  0  0  0
    5.4514   -9.0973    8.1123 O   0  0  0  0  0  0  0  0  0  0  0  0
    1.3900  -10.8610    8.1065 C   0  0  0  0  0  0  0  0  0  0  0  0
    5.1943  -13.1848    9.6688 C   0  0  0  0  0  0  0  0  0  0  0  0
    6.3823  -11.3007   11.7500 C   0  0  0  0  0  0  0  0  0  0  0  0
    1.4520   -9.1081   13.4135 O   0  0  0  0  0  0  0  0  0  0  0  0
    2.7017   -6.6655    9.2649 O   0  0  0  0  0  0  0  0  0  0  0  0
  1 18  1  0
  2 15  1  0
  2 27  1  0
  2 36  2  0
  3 13  1  0
  3 27  1  0
  4 17  1  0
  4 18  1  0
  4 37  1  0
  5 11  1  0
  5 24  1  0
  5 25  1  0
  6  9  1  0
  6 20  1  0
  7 28  1  0
  8 13  1  0
  8 17  1  0
  8 29  1  0
  9 21  1  0
 10 14  2  0
 11 30  1  0
 12 16  1  0
 12 21  1  0
 13 33  1  0
 14 16  1  0
 14 20  1  0
 15 28  1  0
 17 30  1  0
 18 23  1  0
 18 32  1  0
 19 34  3  0
 19 35  1  0
 20 35  1  0
 21 28  1  0
 21 35  1  0
 22 27  2  0
 24 26  1  0
 24 34  1  0
 25 33  1  0
 28 31  1  0
 30 33  1  0
M  END
>  <ID>  (1) 
conformer_0

$$$$
