
     RDKit          3D

 31 32  0  0  0  0  0  0  0  0999 V2000
    8.2979   -9.9574   12.2111 C   0  0  0  0  0  0  0  0  0  0  0  0
    1.1329   -8.1904    8.4572 C   0  0  0  0  0  0  0  0  0  0  0  0
    3.7167   -8.3606    8.5991 C   0  0  0  0  0  0  0  0  0  0  0  0
    3.0286   -6.5131    9.9080 O   0  0  0  0  0  0  0  0  0  0  0  0
    3.4236  -11.4586    8.2770 C   0  0  0  0  0  0  0  0  0  0  0  0
    5.3335  -14.3132   12.9510 O   0  0  0  0  0  0  0  0  0  0  0  0
    6.2704   -8.6078   11.4430 C   0  0  0  0  0  0  0  0  0  0  0  0
    6.1544  -11.0071   11.9257 O   0  0  0  0  0  0  0  0  0  0  0  0
    4.4738  -10.4782    7.5468 C   0  0  0  0  0  0  0  0  0  0  0  0
    3.9625   -7.4706    9.7864 C   0  0  0  0  0  0  0  0  0  0  0  0
    6.8995   -7.4887   11.9123 O   0  0  0  0  0  0  0  0  0  0  0  0
    5.1699   -7.9460   10.5483 C   0  0  0  0  0  0  0  0  0  0  0  0
    5.9382  -11.7227   10.8163 C   0  0  0  0  0  0  0  0  0  0  0  0
    6.3794   -9.4196   13.7649 C   0  0  0  0  0  0  0  0  0  0  0  0
    2.4197   -8.8534    7.9871 C   0  0  0  0  0  0  0  0  0  0  0  0
    4.1825  -12.8732    8.0161 C   0  0  0  0  0  0  0  0  0  0  0  0
    0.4352   -7.6048    7.3659 O   0  0  0  0  0  0  0  0  0  0  0  0
    4.6585  -12.9745    6.5434 C   0  0  0  0  0  0  0  0  0  0  0  0
    2.7997  -13.9954    5.4525 O   0  0  0  0  0  0  0  0  0  0  0  0
    4.3355  -13.3285   12.2971 S   0  0  0  0  0  4  0  0  0  0  0  0
    4.2026  -12.1515   13.3082 O   0  0  0  0  0  0  0  0  0  0  0  0
    6.7816   -9.7810   12.3244 C   0  0  0  0  0  0  0  0  0  0  0  0
    6.6664  -11.5570    9.7203 O   0  0  0  0  0  0  0  0  0  0  0  0
    4.6215   -9.4801    8.6577 O   0  0  0  0  0  0  0  0  0  0  0  0
    3.8147  -10.4988    6.0975 C   0  0  0  0  0  0  0  0  0  0  0  0
    5.0157  -12.9532   10.7612 C   0  0  0  0  0  0  0  0  0  0  0  0
    2.6286  -11.5848    5.9209 C   0  0  0  0  0  0  0  0  0  0  0  0
    1.5529  -10.8745    6.8176 C   0  0  0  0  0  0  0  0  0  0  0  0
    2.2769  -10.3680    8.1238 O   0  0  0  0  0  0  0  0  0  0  0  0
    2.9494  -13.9395   12.0978 O   0  0  0  0  0  0  0  0  0  0  0  0
    3.4045  -12.8880    5.6664 C   0  0  0  0  0  0  0  0  0  0  0  0
  1 22  1  0
  2 15  1  0
  2 17  1  0
  3 10  1  0
  3 15  1  0
  3 24  1  0
  4 10  1  0
  5  9  1  0
  5 16  1  0
  6 20  1  0
  7 11  1  0
  7 12  2  0
  7 22  1  0
  8 13  1  0
  8 22  1  0
  9 24  1  0
  9 25  1  0
 10 12  2  0
 13 23  2  0
 13 26  1  0
 14 22  1  0
 15 29  1  0
 16 18  1  0
 18 31  1  0
 19 31  2  0
 20 21  1  0
 20 26  1  0
 20 30  1  0
 25 27  1  0
 27 28  1  0
 27 31  1  0
 28 29  1  0
M  END
>  <ID>  (1) 
conformer_0

$$$$
