
     RDKit          3D

 27 28  0  0  0  0  0  0  0  0999 V2000
    5.4217   -9.7134   11.9165 C   0  0  0  0  0  0  0  0  0  0  0  0
    0.4571   -7.7821    7.5970 O   0  0  0  0  0  0  0  0  0  0  0  0
    3.1471  -10.5095   14.8868 O   0  0  0  0  0  0  0  0  0  0  0  0
    2.5909  -10.3999    7.6778 C   0  0  0  0  0  0  0  0  0  0  0  0
    4.4000  -12.4166    7.5389 C   0  0  0  0  0  0  0  0  0  0  0  0
    5.1501  -10.2123    8.1579 O   0  0  0  0  0  0  0  0  0  0  0  0
    4.3449  -10.2328   12.8747 C   0  0  0  0  0  0  0  0  0  0  0  0
    3.8687   -6.8755    9.2746 C   0  0  0  0  0  0  0  0  0  0  0  0
    7.1497   -8.4044   13.1638 C   0  0  0  0  0  0  0  0  0  0  0  0
    2.5314   -9.5681   11.1671 C   0  0  0  0  0  0  0  0  0  0  0  0
    1.9558   -9.3582    8.7675 C   0  0  0  0  0  0  0  0  0  0  0  0
    0.7024   -9.9850    9.3246 C   0  0  0  0  0  0  0  0  0  0  0  0
    2.9948   -9.2232    9.8056 C   0  0  0  0  0  0  0  0  0  0  0  0
    2.1532  -12.6378    6.7574 O   0  0  0  0  0  0  0  0  0  0  0  0
    1.6968  -11.6281    7.6433 C   0  0  0  0  0  0  0  0  0  0  0  0
    2.6346   -9.5910    6.5044 O   0  0  0  0  0  0  0  0  0  0  0  0
    4.1616   -6.0587   10.4420 O   0  0  0  0  0  0  0  0  0  0  0  0
    2.9330  -10.4268   12.3276 C   0  0  0  0  0  0  0  0  0  0  0  0
    4.1211   -8.2897    9.7448 C   0  0  0  0  0  0  0  0  0  0  0  0
    5.2666  -11.1025   14.8252 O   0  0  0  0  0  0  0  0  0  0  0  0
    4.0041  -11.0088    7.8459 C   0  0  0  0  0  0  0  0  0  0  0  0
    4.2684  -10.5851   14.3381 C   0  0  0  0  0  0  0  0  0  0  0  0
    3.2955  -13.3354    7.2851 C   0  0  0  0  0  0  0  0  0  0  0  0
    6.8855   -9.5497   12.2111 C   0  0  0  0  0  0  0  0  0  0  0  0
    7.7200   -9.7656   10.9965 C   0  0  0  0  0  0  0  0  0  0  0  0
    5.0308   -8.7322   10.8607 O   0  0  0  0  0  0  0  0  0  0  0  0
    1.6058   -7.9049    8.3851 C   0  0  0  0  0  0  0  0  0  0  0  0
  1  7  1  0
  1 24  1  0
  1 26  1  0
  2 27  1  0
  3 22  2  0
  4 11  1  0
  4 15  1  0
  4 16  1  0
  4 21  1  0
  5 21  2  0
  5 23  1  0
  6 21  1  0
  7 18  1  0
  7 22  1  0
  8 17  1  0
  8 19  1  0
  9 24  1  0
 10 13  1  0
 10 18  1  0
 11 12  1  0
 11 13  1  0
 11 27  1  0
 13 19  1  0
 14 15  1  0
 14 23  1  0
 19 26  1  0
 20 22  1  0
 24 25  1  0
M  END
>  <ID>  (1) 
conformer_0

$$$$
