
     RDKit          3D

 28 29  0  0  0  0  0  0  0  0999 V2000
    4.4821  -11.8361   11.0555 C   0  0  0  0  0  0  0  0  0  0  0  0
    3.3432  -11.1801   10.5895 C   0  0  0  0  0  0  0  0  0  0  0  0
    8.0756  -10.2086    9.7564 O   0  0  0  0  0  0  0  0  0  0  0  0
   -0.0028   -8.5553    7.8963 C   0  0  0  0  0  0  0  0  0  0  0  0
    4.8092  -11.8794   12.3984 C   0  0  0  0  0  0  0  0  0  0  0  0
    3.4492   -9.7866    8.4373 N   0  0  0  0  0  0  0  0  0  0  0  0
    7.2409   -8.3758   10.7246 O   0  0  0  0  0  0  0  0  0  0  0  0
    7.2473   -8.4278    8.3356 C   0  0  0  0  0  0  0  0  0  0  0  0
    1.1710   -9.4534    7.6344 C   0  0  0  0  0  0  0  0  0  0  0  0
    4.0055  -11.2963   13.3917 C   0  0  0  0  0  0  0  0  0  0  0  0
    3.0212  -11.0762    9.1033 C   0  0  0  0  0  0  0  0  0  0  0  0
    2.4693   -8.8013    7.9920 C   0  0  0  0  0  0  0  0  0  0  0  0
    2.2323  -11.8148    8.0185 C   0  0  0  0  0  0  0  0  0  0  0  0
    2.4743  -10.6327   11.5746 C   0  0  0  0  0  0  0  0  0  0  0  0
    3.7279   -7.4761   10.6465 O   0  0  0  0  0  0  0  0  0  0  0  0
    0.3195   -7.1595    7.7441 O   0  0  0  0  0  0  0  0  0  0  0  0
    2.7354   -7.4916    8.5108 N   0  0  0  0  0  0  0  0  0  0  0  0
    5.3865  -12.2753   15.0382 C   0  0  0  0  0  0  0  0  0  0  0  0
    4.2882  -11.3429   14.7485 O   0  0  0  0  0  0  0  0  0  0  0  0
    6.1050   -8.9287    7.7234 C   0  0  0  0  0  0  0  0  0  0  0  0
    0.9621  -10.9603    7.7619 C   0  0  0  0  0  0  0  0  0  0  0  0
    7.5606   -9.0529    9.7200 C   0  0  0  0  0  0  0  0  0  0  0  0
    0.0392  -11.2877    8.8110 O   0  0  0  0  0  0  0  0  0  0  0  0
    4.3188  -10.2820    7.2549 C   0  0  0  0  0  0  0  0  0  0  0  0
    3.6929   -7.1061    9.4504 C   0  0  0  0  0  0  0  0  0  0  0  0
    2.7933  -10.6554   12.9352 C   0  0  0  0  0  0  0  0  0  0  0  0
    4.4863   -6.1900    9.1033 O   0  0  0  0  0  0  0  0  0  0  0  0
    5.7568  -10.4234    7.9093 C   0  0  0  0  0  0  0  0  0  0  0  0
  1  2  2  0
  1  5  1  0
  2 11  1  0
  2 14  1  0
  3 22  2  0
  4  9  1  0
  4 16  1  0
  5 10  2  0
  6 11  1  0
  6 12  1  0
  6 24  1  0
  7 22  1  0
  8 20  1  0
  8 22  1  0
  9 12  1  0
  9 21  1  0
 10 19  1  0
 10 26  1  0
 11 13  1  0
 12 17  2  3
 13 21  1  0
 14 26  2  0
 15 25  2  0
 17 25  1  0
 18 19  1  0
 20 28  1  0
 21 23  1  0
 24 28  1  0
 25 27  1  0
M  END
>  <ID>  (1) 
conformer_0

$$$$
