
     RDKit          3D

 35 41  0  0  0  0  0  0  0  0999 V2000
    3.8300  -10.1389   12.9215 C   0  0  0  0  0  0  0  0  0  0  0  0
    1.2170  -10.3217   12.7943 C   0  0  0  0  0  0  0  0  0  0  0  0
    2.4072   -9.5974   13.4702 C   0  0  0  0  0  0  0  0  0  0  0  0
    2.3302   -7.3771    8.6895 C   0  0  0  0  0  0  0  0  0  0  0  0
    2.7929  -12.6498    5.8220 N   0  0  0  0  0  0  0  0  0  0  0  0
    1.0300  -10.4014    9.9618 C   0  0  0  0  0  0  0  0  0  0  0  0
    9.3518   -9.5537    9.8710 C   0  0  0  0  0  0  0  0  0  0  0  0
    4.5581   -8.4186    9.3528 C   0  0  0  0  0  0  0  0  0  0  0  0
    3.1791   -9.3310    7.3843 C   0  0  0  0  0  0  0  0  0  0  0  0
    5.5594   -8.8280   11.7394 O   0  0  0  0  0  0  0  0  0  0  0  0
    5.4014   -9.9091   12.8107 C   0  0  0  0  0  0  0  0  0  0  0  0
    3.6370  -13.8096    5.6977 C   0  0  0  0  0  0  0  0  0  0  0  0
    1.3656  -10.8307    7.4392 O   0  0  0  0  0  0  0  0  0  0  0  0
   -0.1633   -9.1858    8.3676 O   0  0  0  0  0  0  0  0  0  0  0  0
    9.1989  -10.4957    8.8931 C   0  0  0  0  0  0  0  0  0  0  0  0
    2.5874  -10.5056    6.7867 C   0  0  0  0  0  0  0  0  0  0  0  0
    1.3721   -6.4316    8.8031 O   0  0  0  0  0  0  0  0  0  0  0  0
    2.7408  -11.7001   11.2178 C   0  0  0  0  0  0  0  0  0  0  0  0
    1.4938  -10.7731   11.4031 C   0  0  0  0  0  0  0  0  0  0  0  0
    1.0911   -9.7953    8.5051 C   0  0  0  0  0  0  0  0  0  0  0  0
    8.0155  -10.7921    8.3327 N   0  0  0  0  0  0  0  0  0  0  0  0
    5.5701  -10.4061    7.9612 C   0  0  0  0  0  0  0  0  0  0  0  0
    4.9245  -11.3805    7.0086 N   0  0  0  0  0  0  0  0  0  0  0  0
    3.5035   -6.7469   10.6468 O   0  0  0  0  0  0  0  0  0  0  0  0
    3.5679  -11.5350    6.3623 C   0  0  0  0  0  0  0  0  0  0  0  0
    3.0534  -12.6375   13.4633 C   0  0  0  0  0  0  0  0  0  0  0  0
    4.4132   -6.1978    8.5370 O   0  0  0  0  0  0  0  0  0  0  0  0
    8.2027   -8.9229   10.3396 C   0  0  0  0  0  0  0  0  0  0  0  0
    3.5828  -11.5847   12.4459 C   0  0  0  0  0  0  0  0  0  0  0  0
    2.0776   -8.7088    8.1417 C   0  0  0  0  0  0  0  0  0  0  0  0
    6.9696   -9.2764    9.8119 C   0  0  0  0  0  0  0  0  0  0  0  0
    3.6844   -7.1559    9.2993 C   0  0  0  0  0  0  0  0  0  0  0  0
    5.7048   -8.6623   10.3001 C   0  0  0  0  0  0  0  0  0  0  0  0
    6.8644  -10.1613    8.7296 C   0  0  0  0  0  0  0  0  0  0  0  0
    4.4522   -9.3906    8.1945 C   0  0  0  0  0  0  0  0  0  0  0  0
  1  3  1  0
  1 11  1  0
  1 29  1  0
  2  3  1  0
  2 19  1  0
  4 17  1  0
  4 30  1  0
  4 32  1  0
  5 12  1  0
  5 25  2  3
  6 19  1  0
  6 20  1  0
  7 15  2  0
  7 28  1  0
  8 32  1  0
  8 33  1  0
  8 35  1  0
  9 16  1  0
  9 30  1  0
  9 35  1  0
 10 11  1  0
 10 33  1  0
 13 16  1  0
 13 20  1  0
 14 20  1  0
 15 21  1  0
 16 25  1  0
 18 19  1  0
 18 29  1  0
 20 30  1  0
 21 34  2  0
 22 23  2  0
 22 34  1  0
 22 35  1  0
 23 25  1  0
 24 32  1  0
 26 29  1  0
 27 32  1  0
 28 31  2  0
 31 33  1  0
 31 34  1  0
M  END
>  <ID>  (1) 
conformer_0

$$$$
