
     RDKit          3D

 28 29  0  0  0  0  0  0  0  0999 V2000
    2.7606  -10.5720   11.5127 C   0  0  0  0  0  0  0  0  0  0  0  0
    1.4940  -10.2032   12.2921 C   0  0  0  0  0  0  0  0  0  0  0  0
    7.2028   -8.3256   12.9630 C   0  0  0  0  0  0  0  0  0  0  0  0
    4.6235  -11.4861   13.1841 C   0  0  0  0  0  0  0  0  0  0  0  0
    1.3067  -11.8386    8.0871 O   0  0  0  0  0  0  0  0  0  0  0  0
    0.9828   -7.3347    8.3658 O   0  0  0  0  0  0  0  0  0  0  0  0
    5.7198   -8.8991   10.5788 C   0  0  0  0  0  0  0  0  0  0  0  0
    2.1748  -10.6611    6.1790 C   0  0  0  0  0  0  0  0  0  0  0  0
    1.8818   -9.5255    8.3060 C   0  0  0  0  0  0  0  0  0  0  0  0
    3.2985   -6.3144   10.6256 O   0  0  0  0  0  0  0  0  0  0  0  0
    0.3536  -10.7568    9.7631 O   0  0  0  0  0  0  0  0  0  0  0  0
    2.4244   -9.4987    7.0026 O   0  0  0  0  0  0  0  0  0  0  0  0
    3.8944   -6.4304    9.4980 C   0  0  0  0  0  0  0  0  0  0  0  0
    4.7361   -5.7356    8.9054 O   0  0  0  0  0  0  0  0  0  0  0  0
    5.6112  -10.3806   11.1143 C   0  0  0  0  0  0  0  0  0  0  0  0
    2.0380  -11.9167    6.8767 C   0  0  0  0  0  0  0  0  0  0  0  0
    5.2502  -12.7012   13.9624 C   0  0  0  0  0  0  0  0  0  0  0  0
    3.5223   -7.7473    8.7522 C   0  0  0  0  0  0  0  0  0  0  0  0
    1.1273  -10.6865    8.7810 C   0  0  0  0  0  0  0  0  0  0  0  0
    1.8452   -9.4221   13.4953 O   0  0  0  0  0  0  0  0  0  0  0  0
    4.2969   -8.7994    9.6609 C   0  0  0  0  0  0  0  0  0  0  0  0
    3.0997  -12.9537    7.1043 C   0  0  0  0  0  0  0  0  0  0  0  0
    7.1802   -8.5159   11.4461 C   0  0  0  0  0  0  0  0  0  0  0  0
    5.8871  -10.9393   12.4664 C   0  0  0  0  0  0  0  0  0  0  0  0
    1.9977   -8.1264    8.9589 C   0  0  0  0  0  0  0  0  0  0  0  0
    3.5074  -11.6980   12.1604 C   0  0  0  0  0  0  0  0  0  0  0  0
    3.2439   -9.5961   10.5142 O   0  0  0  0  0  0  0  0  0  0  0  0
    8.2774   -8.9601   10.5614 C   0  0  0  0  0  0  0  0  0  0  0  0
  1  2  1  0
  1 26  1  0
  1 27  1  0
  2 20  1  0
  3 23  1  0
  4 17  1  0
  4 24  1  0
  4 26  1  0
  5 16  1  0
  5 19  1  0
  6 25  1  0
  7 15  1  0
  7 21  1  0
  7 23  1  0
  8 12  1  0
  8 16  1  0
  9 12  1  0
  9 19  1  0
  9 25  1  0
 10 13  2  0
 11 19  2  0
 13 14  1  0
 13 18  1  0
 15 24  1  0
 16 22  1  0
 18 21  1  0
 18 25  1  0
 21 27  1  0
 23 28  1  0
M  END
>  <ID>  (1) 
conformer_0

$$$$
