
     RDKit          3D

 34 37  0  0  0  0  0  0  0  0999 V2000
    5.0763   -8.6060    9.7307 C   0  0  0  0  0  0  0  0  0  0  0  0
    3.8174   -8.2181    7.6545 C   0  0  0  0  0  0  0  0  0  0  0  0
    6.3019   -8.6430    7.4798 O   0  0  0  0  0  0  0  0  0  0  0  0
    7.6811   -9.9434   11.8497 C   0  0  0  0  0  0  0  0  0  0  0  0
    2.0585  -11.2572   14.3139 O   0  0  0  0  0  0  0  0  0  0  0  0
    0.4762  -10.5116    9.0271 C   0  0  0  0  0  0  0  0  0  0  0  0
    2.2007   -8.8724    9.3042 O   0  0  0  0  0  0  0  0  0  0  0  0
    4.2946   -6.3475   10.4848 O   0  0  0  0  0  0  0  0  0  0  0  0
    8.2236   -9.9379   10.5073 C   0  0  0  0  0  0  0  0  0  0  0  0
    3.5491  -10.0936   12.8748 C   0  0  0  0  0  0  0  0  0  0  0  0
    2.5673  -13.3623   12.4970 N   0  0  0  0  0  0  0  0  0  0  0  0
    3.3299  -14.7241   10.6745 C   0  0  0  0  0  0  0  0  0  0  0  0
    6.7281  -10.8715   12.3638 C   0  0  0  0  0  0  0  0  0  0  0  0
    3.2029  -13.8327    9.6316 C   0  0  0  0  0  0  0  0  0  0  0  0
    8.2430   -7.8413    9.3164 O   0  0  0  0  0  0  0  0  0  0  0  0
    2.1690   -6.5492    9.0065 O   0  0  0  0  0  0  0  0  0  0  0  0
    3.0384  -14.5044   11.9790 C   0  0  0  0  0  0  0  0  0  0  0  0
    2.2990  -10.9579   12.9136 C   0  0  0  0  0  0  0  0  0  0  0  0
    6.5861   -9.0044   13.6571 S   0  0  0  0  0  0  0  0  0  0  0  0
    5.9361  -10.2981   13.3020 C   0  0  0  0  0  0  0  0  0  0  0  0
    7.8451   -9.0897    9.3562 C   0  0  0  0  0  0  0  0  0  0  0  0
    7.6901   -8.8477   12.7240 C   0  0  0  0  0  0  0  0  0  0  0  0
    4.6361  -10.4943   13.6834 O   0  0  0  0  0  0  0  0  0  0  0  0
    5.1570   -8.7167    8.2050 C   0  0  0  0  0  0  0  0  0  0  0  0
    0.6328   -8.2674    7.4925 C   0  0  0  0  0  0  0  0  0  0  0  0
    0.9081   -9.1158    8.7562 C   0  0  0  0  0  0  0  0  0  0  0  0
    1.9572  -11.9327   10.6211 C   0  0  0  0  0  0  0  0  0  0  0  0
    2.5713  -12.6240    9.5574 C   0  0  0  0  0  0  0  0  0  0  0  0
   -0.5209   -7.4323    7.8576 O   0  0  0  0  0  0  0  0  0  0  0  0
    4.0792   -7.5618   10.0248 C   0  0  0  0  0  0  0  0  0  0  0  0
    2.3013  -12.1491   11.9712 C   0  0  0  0  0  0  0  0  0  0  0  0
    0.9250  -10.9420   10.3078 N   0  0  0  0  0  0  0  0  0  0  0  0
    2.9613   -7.6756    8.8657 C   0  0  0  0  0  0  0  0  0  0  0  0
    7.3558   -9.5973    7.9841 C   0  0  0  0  0  0  0  0  0  0  0  0
  1 24  1  0
  1 30  1  0
  2 24  1  0
  2 33  1  0
  3 24  1  0
  3 34  1  0
  4  9  1  0
  4 13  1  0
  4 22  1  0
  5 18  1  0
  6 26  1  0
  6 32  1  0
  7 26  1  0
  7 33  1  0
  8 30  1  0
  9 21  1  0
 10 18  1  0
 10 23  1  0
 11 17  2  0
 11 31  1  0
 12 14  2  0
 12 17  1  0
 13 20  1  0
 14 28  1  0
 15 21  1  0
 16 33  1  0
 18 31  1  0
 19 20  1  0
 19 22  1  0
 20 23  1  0
 21 34  1  0
 25 26  1  0
 25 29  1  0
 27 28  1  0
 27 31  1  0
 27 32  2  0
 30 33  1  0
M  END
>  <ID>  (1) 
conformer_0

$$$$
