
     RDKit          3D

 20 19  0  0  0  0  0  0  0  0999 V2000
    0.6522   -7.2190    7.9021 O   0  0  0  0  0  0  0  0  0  0  0  0
    2.7161   -9.4249   10.0618 C   0  0  0  0  0  0  0  0  0  0  0  0
    1.1825   -8.2895    8.5342 C   0  0  0  0  0  0  0  0  0  0  0  0
    2.0612  -10.5270    9.5144 O   0  0  0  0  0  0  0  0  0  0  0  0
    4.3018  -10.9169   14.1491 O   0  0  0  0  0  0  0  0  0  0  0  0
    3.1697  -12.6166    9.6336 C   0  0  0  0  0  0  0  0  0  0  0  0
    4.8649   -8.4978   10.7064 C   0  0  0  0  0  0  0  0  0  0  0  0
    2.5433  -11.5591    8.7583 C   0  0  0  0  0  0  0  0  0  0  0  0
    1.1286  -11.0300    6.9562 O   0  0  0  0  0  0  0  0  0  0  0  0
    6.9414   -8.0252    9.8198 O   0  0  0  0  0  0  0  0  0  0  0  0
    6.2662   -8.2764   10.9181 C   0  0  0  0  0  0  0  0  0  0  0  0
    2.5008   -8.1143    9.3337 C   0  0  0  0  0  0  0  0  0  0  0  0
    2.8041   -6.9932   10.0619 O   0  0  0  0  0  0  0  0  0  0  0  0
    6.7331   -7.9311   12.0643 O   0  0  0  0  0  0  0  0  0  0  0  0
    2.6900  -12.0513   13.1431 O   0  0  0  0  0  0  0  0  0  0  0  0
    3.7994   -9.4495   11.0434 C   0  0  0  0  0  0  0  0  0  0  0  0
    2.0213  -11.8468    7.4207 C   0  0  0  0  0  0  0  0  0  0  0  0
    3.4839  -11.0752   13.1763 C   0  0  0  0  0  0  0  0  0  0  0  0
    3.4632  -10.2205   12.1651 O   0  0  0  0  0  0  0  0  0  0  0  0
    2.4898  -12.8538    6.7145 N   0  0  0  0  0  0  0  0  0  0  0  0
  1  3  1  0
  2  4  1  0
  2 12  1  0
  2 16  1  0
  3 12  1  0
  4  8  1  0
  5 18  2  0
  6  8  1  0
  7 11  1  0
  7 16  1  0
  8 17  1  0
  9 17  2  0
 10 11  2  0
 11 14  1  0
 12 13  1  0
 15 18  1  0
 16 19  1  0
 17 20  1  0
 18 19  1  0
M  END
>  <ID>  (1) 
conformer_0

$$$$
