
     RDKit          3D

 18 17  0  0  0  0  0  0  0  0999 V2000
    1.5387  -10.9204    8.5508 C   0  0  0  0  0  0  0  0  0  0  0  0
    2.4698   -7.6645    9.0970 C   0  0  0  0  0  0  0  0  0  0  0  0
    6.3894   -7.9635   11.4953 O   0  0  0  0  0  0  0  0  0  0  0  0
    1.3407   -9.7089    7.7191 C   0  0  0  0  0  0  0  0  0  0  0  0
    1.9754  -12.0616    6.5507 C   0  0  0  0  0  0  0  0  0  0  0  0
    0.7948  -11.2692    9.4518 O   0  0  0  0  0  0  0  0  0  0  0  0
    1.1696   -8.4090    8.5708 C   0  0  0  0  0  0  0  0  0  0  0  0
    6.2988  -10.8332   14.2285 O   0  0  0  0  0  0  0  0  0  0  0  0
    7.7733   -9.3074   13.6202 O   0  0  0  0  0  0  0  0  0  0  0  0
    0.4215   -7.4772    7.6769 O   0  0  0  0  0  0  0  0  0  0  0  0
    6.0885  -10.2148   12.0146 C   0  0  0  0  0  0  0  0  0  0  0  0
    4.3167   -9.0502   10.6190 C   0  0  0  0  0  0  0  0  0  0  0  0
    3.6034   -7.8270   10.1547 C   0  0  0  0  0  0  0  0  0  0  0  0
    6.7408  -10.0450   13.3298 C   0  0  0  0  0  0  0  0  0  0  0  0
    2.0121   -6.2750    9.2796 O   0  0  0  0  0  0  0  0  0  0  0  0
    4.2443   -6.6483   10.4428 O   0  0  0  0  0  0  0  0  0  0  0  0
    2.4305  -11.7820    7.9343 O   0  0  0  0  0  0  0  0  0  0  0  0
    5.6665   -9.0012   11.3015 C   0  0  0  0  0  0  0  0  0  0  0  0
  1  4  1  0
  1  6  2  0
  1 17  1  0
  2  7  1  0
  2 13  1  0
  2 15  1  0
  3 18  2  0
  4  7  1  0
  5 17  1  0
  7 10  1  0
  8 14  2  0
  9 14  1  0
 11 14  1  0
 11 18  1  0
 12 13  1  0
 12 18  1  0
 13 16  1  0
M  END
>  <ID>  (1) 
conformer_0

$$$$
