
     RDKit          3D

 27 27  0  0  0  0  0  0  0  0999 V2000
    6.0968   -9.5760   14.3786 O   0  0  0  0  0  0  0  0  0  0  0  0
    1.5041   -9.1098    7.3816 C   0  0  0  0  0  0  0  0  0  0  0  0
    4.5709   -9.1933   11.1346 C   0  0  0  0  0  0  0  0  0  0  0  0
    3.8538  -14.4915   11.1452 O   0  0  0  0  0  0  0  0  0  0  0  0
    7.1359   -9.1188   13.6626 C   0  0  0  0  0  0  0  0  0  0  0  0
    0.8727  -10.4046    6.9259 C   0  0  0  0  0  0  0  0  0  0  0  0
    4.8112   -8.2863    9.9669 C   0  0  0  0  0  0  0  0  0  0  0  0
    4.0453  -13.9546    9.9986 C   0  0  0  0  0  0  0  0  0  0  0  0
    1.2781  -11.1585    9.1365 O   0  0  0  0  0  0  0  0  0  0  0  0
    0.7056   -8.2279    8.4100 C   0  0  0  0  0  0  0  0  0  0  0  0
    1.7017   -6.2401    9.2963 O   0  0  0  0  0  0  0  0  0  0  0  0
    6.7797   -9.2417   12.2356 C   0  0  0  0  0  0  0  0  0  0  0  0
    4.9184  -11.4354   11.8722 O   0  0  0  0  0  0  0  0  0  0  0  0
    5.1314  -12.9100    9.9732 C   0  0  0  0  0  0  0  0  0  0  0  0
    5.5450  -10.0413   11.9631 C   0  0  0  0  0  0  0  0  0  0  0  0
    5.5463   -8.7028    8.7779 C   0  0  0  0  0  0  0  0  0  0  0  0
    4.3133   -6.0987    9.0212 O   0  0  0  0  0  0  0  0  0  0  0  0
    1.5684  -11.5274    7.7056 C   0  0  0  0  0  0  0  0  0  0  0  0
    0.0619   -7.2693    7.5432 O   0  0  0  0  0  0  0  0  0  0  0  0
    2.3209   -7.5944    8.9549 C   0  0  0  0  0  0  0  0  0  0  0  0
    8.5024   -9.4984   13.8769 C   0  0  0  0  0  0  0  0  0  0  0  0
    7.2072   -8.2730   11.5201 O   0  0  0  0  0  0  0  0  0  0  0  0
    3.3611   -8.9247   11.8456 O   0  0  0  0  0  0  0  0  0  0  0  0
    4.6714  -11.7393   10.5223 N   0  0  0  0  0  0  0  0  0  0  0  0
    3.2170  -13.8330    8.9178 C   0  0  0  0  0  0  0  0  0  0  0  0
    3.7387   -7.2712    9.6855 C   0  0  0  0  0  0  0  0  0  0  0  0
    2.8048   -8.9184    8.0672 O   0  0  0  0  0  0  0  0  0  0  0  0
  1  5  1  0
  2  6  1  0
  2 10  1  0
  2 27  1  0
  3  7  1  0
  3 15  1  0
  3 23  1  0
  4  8  2  0
  5 12  1  0
  5 21  1  0
  6 18  1  0
  7 16  1  0
  7 26  1  0
  8 14  1  0
  8 25  1  0
  9 18  1  0
 10 19  1  0
 10 20  1  0
 11 20  1  0
 12 15  1  0
 12 22  2  0
 13 15  1  0
 13 24  1  0
 14 24  1  0
 17 26  1  0
 20 26  1  0
 20 27  1  0
M  END
>  <ID>  (1) 
conformer_0

$$$$
