
     RDKit          3D

 27 27  0  0  0  0  0  0  0  0999 V2000
    7.6738  -10.7218   13.4742 O   0  0  0  0  0  1  0  0  0  0  0  0
    4.4469   -8.3810   10.0622 C   0  0  0  0  0  0  0  0  0  0  0  0
    1.1308  -11.3836    7.8300 O   0  0  0  0  0  0  0  0  0  0  0  0
    2.5104   -6.9278    9.7463 O   0  0  0  0  0  0  0  0  0  0  0  0
    3.9996   -9.8634   10.0426 C   0  0  0  0  0  0  0  0  0  0  0  0
    0.1146   -6.9819    7.8407 O   0  0  0  0  0  0  0  0  0  0  0  0
    3.6426  -12.4257   10.6519 C   0  0  0  0  0  0  0  0  0  0  0  0
    3.2219  -10.1328    8.8288 O   0  0  0  0  0  0  0  0  0  0  0  0
    2.6690   -8.8486    8.2469 C   0  0  0  0  0  0  0  0  0  0  0  0
    7.3403   -9.2283   13.0653 P   0  0  0  0  0  4  0  0  0  0  0  0
    5.7897  -11.4083   10.7387 O   0  0  0  0  0  0  0  0  0  0  0  0
    6.1966   -9.3353   12.1040 O   0  0  0  0  0  0  0  0  0  0  0  0
    4.4918  -13.6296   10.5862 C   0  0  0  0  0  0  0  0  0  0  0  0
    5.1676   -7.1942   10.5343 O   0  0  0  0  0  0  0  0  0  0  0  0
    6.8645   -8.4164   14.2600 O   0  0  0  0  0  0  0  0  0  0  0  0
    4.2588   -6.9742    8.1358 O   0  0  0  0  0  0  0  0  0  0  0  0
    8.5033   -8.5685   12.3819 O   0  0  0  0  0  0  0  0  0  0  0  0
    3.7374  -14.6895    8.6050 O   0  0  0  0  0  0  0  0  0  0  0  0
    3.9676  -14.7517    9.8500 C   0  0  0  0  0  0  0  0  0  0  0  0
    3.9086  -15.8820   10.5218 N   0  0  0  0  0  0  0  0  0  0  0  0
    3.3883   -7.6763    9.0065 C   0  0  0  0  0  0  0  0  0  0  0  0
    2.7079  -12.2999   11.6866 O   0  0  0  0  0  0  0  0  0  0  0  0
    0.4411   -8.2861    7.3144 C   0  0  0  0  0  0  0  0  0  0  0  0
    0.6483  -10.3740    8.6159 C   0  0  0  0  0  0  0  0  0  0  0  0
    1.1412   -9.0034    8.4643 C   0  0  0  0  0  0  0  0  0  0  0  0
    4.4685  -11.1796   10.6296 C   0  0  0  0  0  0  0  0  0  0  0  0
    5.1778   -9.0724   11.2848 C   0  0  0  0  0  0  0  0  0  0  0  0
  1 10  2  0
  2  5  1  0
  2 14  1  0
  2 21  1  0
  2 27  1  0
  3 24  1  0
  4 21  1  0
  5  8  1  0
  5 26  1  0
  6 23  1  0
  7 13  1  0
  7 22  1  0
  7 26  1  0
  8  9  1  0
  9 21  1  0
  9 25  1  0
 10 12  1  0
 10 15  1  0
 10 17  1  0
 11 26  1  0
 12 27  1  0
 13 19  1  0
 16 21  1  0
 18 19  2  0
 19 20  1  0
 23 25  1  0
 24 25  1  0
M  END
>  <ID>  (1) 
conformer_0

$$$$
