
     RDKit          3D

 22 23  0  0  0  0  0  0  0  0999 V2000
    4.5621  -10.1275   11.2082 C   0  0  0  0  0  0  0  0  0  0  0  0
    3.0116  -12.8203   11.2094 O   0  0  0  0  0  0  0  0  0  0  0  0
    3.1939   -8.4276    9.8763 N   0  0  0  0  0  0  0  0  0  0  0  0
    2.7541   -7.1809    9.7919 C   0  0  0  0  0  0  0  0  0  0  0  0
    1.0458   -7.7796    8.1803 C   0  0  0  0  0  0  0  0  0  0  0  0
    6.4209   -7.8981   11.5578 O   0  0  0  0  0  0  0  0  0  0  0  0
    3.8250  -10.7630   10.0251 C   0  0  0  0  0  0  0  0  0  0  0  0
    1.7592   -6.8231    8.9529 N   0  0  0  0  0  0  0  0  0  0  0  0
    3.5317  -12.2053    9.9901 C   0  0  0  0  0  0  0  0  0  0  0  0
    3.3382  -15.8285    9.1278 O   0  0  0  0  0  0  0  0  0  0  0  0
    3.6488  -13.3424    9.0784 N   0  0  0  0  0  0  0  0  0  0  0  0
    3.3325  -14.5840    9.6768 C   0  0  0  0  0  0  0  0  0  0  0  0
    7.6951  -10.1310   13.9380 O   0  0  0  0  0  0  0  0  0  0  0  0
    2.0880  -10.0872    8.4002 C   0  0  0  0  0  0  0  0  0  0  0  0
    6.4927   -8.9682   12.3402 C   0  0  0  0  0  0  0  0  0  0  0  0
    2.9917   -9.6739    9.4120 C   0  0  0  0  0  0  0  0  0  0  0  0
    8.6652   -8.4205   12.9323 O   0  0  0  0  0  0  0  0  0  0  0  0
    5.4918  -10.0044   12.3021 C   0  0  0  0  0  0  0  0  0  0  0  0
    2.9408  -14.3385   10.9865 C   0  0  0  0  0  0  0  0  0  0  0  0
    7.7068   -9.1827   13.1366 C   0  0  0  0  0  0  0  0  0  0  0  0
    1.2341   -9.1417    7.9633 C   0  0  0  0  0  0  0  0  0  0  0  0
   -0.0153   -7.2305    7.4929 N   0  0  0  0  0  0  0  0  0  0  0  0
  1  7  2  0
  1 18  2  0
  2  9  1  0
  2 19  1  0
  3  4  2  0
  3 16  1  0
  4  8  1  0
  5  8  1  0
  5 21  1  0
  5 22  2  0
  6 15  1  0
  7  9  1  0
  7 16  1  0
  9 11  1  0
 10 12  2  0
 11 12  1  0
 12 19  1  0
 13 20  2  0
 14 16  2  0
 14 21  1  0
 15 18  1  0
 15 20  1  0
 17 20  1  0
M  END
>  <ID>  (1) 
conformer_0

$$$$
