
     RDKit          3D

 21 21  0  0  0  0  0  0  0  0999 V2000
    1.7245  -11.3747    6.5259 C   0  0  0  0  0  0  0  0  0  0  0  0
    4.0097   -9.5579   11.9029 N   0  0  0  0  0  0  0  0  0  0  0  0
    5.8406   -9.3686   13.9079 C   0  0  0  0  0  0  0  0  0  0  0  0
    2.0610  -11.1349    8.0340 C   0  0  0  0  0  0  0  0  0  0  0  0
    5.1566  -10.6763   13.8081 C   0  0  0  0  0  0  0  0  0  0  0  0
    2.4110   -8.3066    8.5940 C   0  0  0  0  0  0  0  0  0  0  0  0
    2.7861   -9.3588   11.2273 C   0  0  0  0  0  0  0  0  0  0  0  0
    6.9022   -8.8601   13.0933 C   0  0  0  0  0  0  0  0  0  0  0  0
    1.4175   -6.1662    9.1575 O   0  0  0  0  0  0  0  0  0  0  0  0
    2.1019  -12.1813    8.8998 N   0  0  0  0  0  0  0  0  0  0  0  0
    2.4916  -12.4947    5.8569 C   0  0  0  0  0  0  0  0  0  0  0  0
    2.3005   -9.9259    8.7823 C   0  0  0  0  0  0  0  0  0  0  0  0
    3.7169  -10.3139   13.2102 S   0  0  0  0  0  0  0  0  0  0  0  0
    3.8242   -8.0191    8.0309 C   0  0  0  0  0  0  0  0  0  0  0  0
    4.8399   -9.1096    7.9148 C   0  0  0  0  0  0  0  0  0  0  0  0
    2.1904   -7.1249    9.6127 C   0  0  0  0  0  0  0  0  0  0  0  0
    2.5285  -10.2971   10.0695 C   0  0  0  0  0  0  0  0  0  0  0  0
    6.7537   -8.0133   12.2095 O   0  0  0  0  0  0  0  0  0  0  0  0
    8.2469   -9.0677   13.6443 C   0  0  0  0  0  0  0  0  0  0  0  0
    3.1058   -6.7657   10.4449 O   0  0  0  0  0  0  0  0  0  0  0  0
    2.3888  -11.6539   10.1715 O   0  0  0  0  0  0  0  0  0  0  0  0
  1  4  1  0
  1 11  1  0
  2  7  1  0
  2 13  1  0
  3  5  1  0
  3  8  1  0
  4 10  1  0
  4 12  2  0
  5 13  1  0
  6 12  1  0
  6 14  1  0
  6 16  1  0
  7 17  1  0
  8 18  2  0
  8 19  1  0
  9 16  2  0
 10 21  1  0
 12 17  1  0
 14 15  1  0
 16 20  1  0
 17 21  1  0
M  END
>  <ID>  (1) 
conformer_0

$$$$
