
     RDKit          3D

 65 70  0  0  0  0  0  0  0  0999 V2000
    9.0020   -9.8119    6.8050 C   0  0  0  0  0  0  0  0  0  0  0  0
   10.2348  -11.0081    8.7097 C   0  0  0  0  0  0  0  0  0  0  0  0
    3.7935  -14.3868    7.2910 C   0  0  0  0  0  0  0  0  0  0  0  0
    4.0657  -14.0811    9.6905 C   0  0  0  0  0  0  0  0  0  0  0  0
    6.8332  -12.1576    6.1905 C   0  0  0  0  0  0  0  0  0  0  0  0
    5.4868  -10.2041    5.4795 O   0  0  0  0  0  0  0  0  0  0  0  0
    3.1957   -7.6183    8.3737 O   0  0  0  0  0  0  0  0  0  0  0  0
    4.6718  -14.1705    8.4329 C   0  0  0  0  0  0  0  0  0  0  0  0
    4.7789  -15.0461    5.2146 C   0  0  0  0  0  0  0  0  0  0  0  0
    1.4252   -6.1431    9.0794 O   0  0  0  0  0  0  0  0  0  0  0  0
   11.4517   -9.5301    6.5917 C   0  0  0  0  0  0  0  0  0  0  0  0
    4.0321   -7.6293   10.6186 C   0  0  0  0  0  0  0  0  0  0  0  0
    6.6249  -10.0997    7.5512 C   0  0  0  0  0  0  0  0  0  0  0  0
    8.3777  -13.5857   11.3299 C   0  0  0  0  0  0  0  0  0  0  0  0
    1.0053   -9.7204    9.1549 O   0  0  0  0  0  0  0  0  0  0  0  0
    3.0267  -11.6769    5.7930 C   0  0  0  0  0  0  0  0  0  0  0  0
    3.1704   -6.7400   11.1354 O   0  0  0  0  0  0  0  0  0  0  0  0
    5.4945  -11.9287   13.5795 C   0  0  0  0  0  0  0  0  0  0  0  0
    9.6111  -12.4111    9.3509 C   0  0  0  0  0  0  0  0  0  0  0  0
    7.7665   -9.1876    7.3000 C   0  0  0  0  0  0  0  0  0  0  0  0
    7.2343  -14.7901   13.0950 C   0  0  0  0  0  0  0  0  0  0  0  0
    6.5054   -8.2710   10.4842 C   0  0  0  0  0  0  0  0  0  0  0  0
   10.2793   -9.6060    7.7013 C   0  0  0  0  0  0  0  0  0  0  0  0
    2.9258  -12.8036   12.6913 C   0  0  0  0  0  0  0  0  0  0  0  0
    7.0315  -11.3512   11.8798 C   0  0  0  0  0  0  0  0  0  0  0  0
    5.0988  -16.1742   13.2897 O   0  0  0  0  0  0  0  0  0  0  0  0
    4.3549  -12.5871    4.0475 O   0  0  0  0  0  0  0  0  0  0  0  0
    6.6426  -12.3993   12.6820 C   0  0  0  0  0  0  0  0  0  0  0  0
    1.3351  -11.9826    9.1656 N   0  0  0  0  0  0  0  0  0  0  0  0
    3.9657  -13.9921    5.9224 C   0  0  0  0  0  0  0  0  0  0  0  0
    6.7897   -7.6782    9.0972 C   0  0  0  0  0  0  0  0  0  0  0  0
    4.3371   -7.4097    9.1892 C   0  0  0  0  0  0  0  0  0  0  0  0
    7.1089   -6.8930    6.8048 O   0  0  0  0  0  0  0  0  0  0  0  0
   -0.0093   -8.3426    7.5488 O   0  0  0  0  0  0  0  0  0  0  0  0
   11.2474   -7.9694    9.2507 O   0  0  0  0  0  0  0  0  0  0  0  0
    9.2591   -7.2300    7.9265 C   0  0  0  0  0  0  0  0  0  0  0  0
    0.9106  -10.9218    8.4678 C   0  0  0  0  0  0  0  0  0  0  0  0
    4.5642  -10.7234   13.5346 C   0  0  0  0  0  0  0  0  0  0  0  0
    5.1522   -8.2919   11.2574 C   0  0  0  0  0  0  0  0  0  0  0  0
    6.3831  -16.9943   12.9895 C   0  0  0  0  0  0  0  0  0  0  0  0
    2.0410  -13.9013   12.3799 C   0  0  0  0  0  0  0  0  0  0  0  0
    5.5808   -6.9984    8.7848 O   0  0  0  0  0  0  0  0  0  0  0  0
    6.1433  -10.9108    6.3897 C   0  0  0  0  0  0  0  0  0  0  0  0
    1.8454  -12.0327    6.5782 O   0  0  0  0  0  0  0  0  0  0  0  0
    1.1588  -10.8367    7.0462 C   0  0  0  0  0  0  0  0  0  0  0  0
    5.4864  -12.4720   14.7703 O   0  0  0  0  0  0  0  0  0  0  0  0
    2.4115  -12.1197    9.8478 C   0  0  0  0  0  0  0  0  0  0  0  0
    8.6649  -12.4639   10.5236 C   0  0  0  0  0  0  0  0  0  0  0  0
    0.9253   -8.4692    8.4721 C   0  0  0  0  0  0  0  0  0  0  0  0
    3.0526  -10.6029   13.8686 C   0  0  0  0  0  0  0  0  0  0  0  0
    7.7647   -7.7608    7.8436 C   0  0  0  0  0  0  0  0  0  0  0  0
    3.4207  -13.0132   10.3986 C   0  0  0  0  0  0  0  0  0  0  0  0
    2.7590  -15.1024   11.7900 C   0  0  0  0  0  0  0  0  0  0  0  0
    3.0995  -10.0979   15.1648 O   0  0  0  0  0  0  0  0  0  0  0  0
    7.3820  -16.0295   12.7554 C   0  0  0  0  0  0  0  0  0  0  0  0
    8.9780  -14.6958   10.9624 C   0  0  0  0  0  0  0  0  0  0  0  0
   10.2680   -8.2407    8.3638 C   0  0  0  0  0  0  0  0  0  0  0  0
    2.5516  -11.9676   13.7231 O   0  0  0  0  0  0  0  0  0  0  0  0
    1.8690   -7.4126    8.9487 C   0  0  0  0  0  0  0  0  0  0  0  0
   -0.1093  -11.1416    7.5313 C   0  0  0  0  0  0  0  0  0  0  0  0
    7.3906  -13.5929   12.4171 C   0  0  0  0  0  0  0  0  0  0  0  0
    3.9845  -12.6753    5.3440 C   0  0  0  0  0  0  0  0  0  0  0  0
    3.8955  -12.6984   11.6858 N   0  0  0  0  0  0  0  0  0  0  0  0
    3.8394  -15.6058   12.7240 C   0  0  0  0  0  0  0  0  0  0  0  0
    7.9374  -11.3569   10.8410 C   0  0  0  0  0  0  0  0  0  0  0  0
  1 20  1  0
  1 23  1  0
  2 19  1  0
  2 23  1  0
  3  8  1  0
  3 30  1  0
  4  8  1  0
  4 52  1  0
  5 43  1  0
  6 43  1  0
  7 32  1  0
  7 59  1  0
  9 30  1  0
 10 59  2  0
 11 23  1  0
 12 17  1  0
 12 32  1  0
 12 39  1  0
 13 20  1  0
 13 43  1  0
 14 48  1  0
 14 56  2  0
 14 61  1  0
 15 37  1  0
 15 49  1  0
 16 44  1  0
 16 62  1  0
 18 28  1  0
 18 38  1  0
 18 46  1  0
 19 48  1  0
 20 51  1  0
 21 55  1  0
 21 61  1  0
 22 31  1  0
 22 39  2  0
 23 57  1  0
 24 41  1  0
 24 58  1  0
 24 63  1  0
 25 28  2  0
 25 65  1  0
 26 40  1  0
 26 64  1  0
 27 62  1  0
 28 61  1  0
 29 37  1  0
 29 47  1  0
 30 62  1  0
 31 42  1  0
 31 51  1  0
 32 42  1  0
 33 51  1  0
 34 49  2  0
 35 57  1  0
 36 51  1  0
 36 57  1  0
 37 60  1  0
 38 50  1  0
 40 55  1  0
 41 53  1  0
 44 45  1  0
 45 60  1  0
 47 52  1  0
 48 65  2  0
 49 59  1  0
 50 54  1  0
 50 58  1  0
 52 63  1  0
 53 64  1  0
M  END
>  <ID>  (1) 
conformer_0

$$$$
