
     RDKit          3D

 28 28  0  0  0  0  0  0  0  0999 V2000
    4.9099  -14.1019    9.4841 N   0  0  0  0  0  0  0  0  0  0  0  0
    0.7993  -10.8525    7.5324 O   0  0  0  0  0  0  0  0  0  0  0  0
    5.5260  -13.4751   10.4875 C   0  0  0  0  0  0  0  0  0  0  0  0
    4.6701   -8.9394   10.2118 C   0  0  0  0  0  0  0  0  0  0  0  0
    0.4822   -9.8990    8.5770 C   0  0  0  0  0  0  0  0  0  0  0  0
    4.0784  -10.4362   14.3382 C   0  0  0  0  0  0  0  0  0  0  0  0
    3.5012   -8.8785    7.6255 O   0  0  0  0  0  0  0  0  0  0  0  0
    3.8827  -11.6645   10.5176 C   0  0  0  0  0  0  0  0  0  0  0  0
    1.2161   -8.5856    8.2244 C   0  0  0  0  0  0  0  0  0  0  0  0
    3.2424   -9.9722   12.0232 O   0  0  0  0  0  0  0  0  0  0  0  0
    5.1710  -12.1505   10.9478 C   0  0  0  0  0  0  0  0  0  0  0  0
    3.7022  -10.1291   10.6104 C   0  0  0  0  0  0  0  0  0  0  0  0
    2.8371   -6.4803    9.2429 O   0  0  0  0  0  0  0  0  0  0  0  0
    4.7118  -13.6763    8.1282 C   0  0  0  0  0  0  0  0  0  0  0  0
    3.6349   -7.7502    9.7447 C   0  0  0  0  0  0  0  0  0  0  0  0
    1.3628  -10.4280    9.7475 C   0  0  0  0  0  0  0  0  0  0  0  0
    2.9892  -12.5159   10.0419 O   0  0  0  0  0  0  0  0  0  0  0  0
    0.7057  -11.2168   10.5082 O   0  0  0  0  0  0  0  0  0  0  0  0
    3.6975   -7.0577   11.0161 O   0  0  0  0  0  0  0  0  0  0  0  0
    6.7123   -7.9103    9.9170 O   0  0  0  0  0  0  0  0  0  0  0  0
    6.1656  -11.3380   11.3237 O   0  0  0  0  0  0  0  0  0  0  0  0
    2.9329  -11.0503   14.7326 O   0  0  0  0  0  0  0  0  0  0  0  0
    2.6589   -8.6689    8.7886 C   0  0  0  0  0  0  0  0  0  0  0  0
    0.6748   -7.5413    7.7530 O   0  0  0  0  0  0  0  0  0  0  0  0
    5.8904   -8.2936   10.7608 C   0  0  0  0  0  0  0  0  0  0  0  0
    6.1672   -8.1944   11.9524 O   0  0  0  0  0  0  0  0  0  0  0  0
    2.5925   -9.8804    9.6311 O   0  0  0  0  0  0  0  0  0  0  0  0
    4.1608  -10.0420   13.0417 C   0  0  0  0  0  0  0  0  0  0  0  0
  1  3  1  0
  1 14  1  0
  2  5  1  0
  3 11  1  0
  4 12  1  0
  4 15  1  0
  4 25  1  0
  5  9  1  0
  5 16  1  0
  6 22  1  0
  6 28  2  3
  7 23  1  0
  8 11  1  0
  8 12  1  0
  8 17  1  0
  9 23  1  0
  9 24  2  0
 10 12  1  0
 10 28  1  0
 11 21  1  0
 13 15  1  0
 15 19  1  0
 15 23  1  0
 16 18  2  0
 16 27  1  0
 20 25  2  0
 23 27  1  0
 25 26  1  0
M  END
>  <ID>  (1) 
conformer_0

$$$$
