
     RDKit          3D

 30 31  0  0  0  0  0  0  0  0999 V2000
    4.3214   -9.7885   11.3646 O   0  0  0  0  0  0  0  0  0  0  0  0
    6.6336   -7.8952   11.8219 O   0  0  0  0  0  1  0  0  0  0  0  0
    8.9064   -8.8165   11.6227 O   0  0  0  0  0  0  0  0  0  0  0  0
    7.5308   -9.2754   13.7156 O   0  0  0  0  0  0  0  0  0  0  0  0
    2.7120   -9.9250    9.1800 O   0  0  0  0  0  0  0  0  0  0  0  0
    4.6025  -11.4652    7.2790 O   0  0  0  0  0  0  0  0  0  0  0  0
    5.5193  -10.6421   11.0498 C   0  0  0  0  0  0  0  0  0  0  0  0
    3.7855  -10.7218    6.3482 C   0  0  0  0  0  0  0  0  0  0  0  0
    2.0988  -10.8483   14.7820 O   0  0  0  0  0  1  0  0  0  0  0  0
    3.0084  -10.6429   13.6460 P   0  0  0  0  0  4  0  0  0  0  0  0
    7.2496  -12.5426    9.4861 O   0  0  0  0  0  0  0  0  0  0  0  0
    5.8480  -12.1082    7.5818 C   0  0  0  0  0  0  0  0  0  0  0  0
    3.6794   -6.4406    9.6683 O   0  0  0  0  0  0  0  0  0  0  0  0
    1.9636   -9.9970    7.9913 C   0  0  0  0  0  0  0  0  0  0  0  0
    1.7313   -7.8743    8.9904 O   0  0  0  0  0  0  0  0  0  0  0  0
    2.9431   -9.2694   11.4467 C   0  0  0  0  0  0  0  0  0  0  0  0
    2.5732   -8.5999   10.0100 C   0  0  0  0  0  0  0  0  0  0  0  0
    7.5014   -9.0930   12.1360 P   0  0  0  0  0  4  0  0  0  0  0  0
    1.5962  -11.0688    7.1668 O   0  0  0  0  0  0  0  0  0  0  0  0
    2.5726  -12.7826    5.6796 C   0  0  0  0  0  0  0  0  0  0  0  0
   -0.0867   -7.9310    7.5556 C   0  0  0  0  0  0  0  0  0  0  0  0
    3.2207  -11.9272   12.7873 O   0  0  0  0  0  0  0  0  0  0  0  0
    6.9621  -10.6318   11.5020 C   0  0  0  0  0  0  0  0  0  0  0  0
    2.2239   -9.5237   12.6532 O   0  0  0  0  0  0  0  0  0  0  0  0
    4.3962  -10.0699   14.1707 O   0  0  0  0  0  0  0  0  0  0  0  0
    3.3122   -7.3417   10.6598 C   0  0  0  0  0  0  0  0  0  0  0  0
    6.1613  -11.9859    9.0722 C   0  0  0  0  0  0  0  0  0  0  0  0
    2.4596  -11.3530    6.0142 C   0  0  0  0  0  0  0  0  0  0  0  0
    5.3508  -11.0602    9.7020 O   0  0  0  0  0  0  0  0  0  0  0  0
    1.2183   -8.7094    7.8384 C   0  0  0  0  0  0  0  0  0  0  0  0
  1  7  1  0
  1 16  1  0
  2 18  2  0
  3 18  1  0
  4 18  1  0
  5 14  1  0
  5 17  1  0
  6  8  1  0
  6 12  1  0
  7 23  1  0
  7 29  1  0
  8 28  1  0
  9 10  2  0
 10 22  1  0
 10 24  1  0
 10 25  1  0
 11 27  2  0
 12 27  1  0
 13 26  1  0
 14 19  1  0
 14 30  1  0
 15 17  1  0
 15 30  1  0
 16 17  1  0
 16 24  1  0
 17 26  1  0
 18 23  1  0
 19 28  1  0
 20 28  1  0
 21 30  1  0
 27 29  1  0
M  END
>  <ID>  (1) 
conformer_0

$$$$
