
     RDKit          3D

 32 32  0  0  0  0  0  0  0  0999 V2000
    8.2586   -9.1362   11.9096 C   0  0  0  0  0  0  0  0  0  0  0  0
    5.3288  -11.5080    6.3950 O   0  0  0  0  0  0  0  0  0  0  0  0
    3.7643  -13.2038    5.0733 C   0  0  0  0  0  0  0  0  0  0  0  0
    2.6207   -6.8629    9.0914 C   0  0  0  0  0  0  0  0  0  0  0  0
    3.4829  -12.6026    3.8082 O   0  0  0  0  0  0  0  0  0  0  0  0
    6.7185   -8.6897   10.0675 C   0  0  0  0  0  0  0  0  0  0  0  0
    0.7598  -10.8335   11.0919 C   0  0  0  0  0  0  0  0  0  0  0  0
    1.1747  -10.3183   12.4415 C   0  0  0  0  0  0  0  0  0  0  0  0
    4.4914  -12.2545   13.0137 C   0  0  0  0  0  0  0  0  0  0  0  0
    8.9266   -8.5764   10.8773 O   0  0  0  0  0  0  0  0  0  0  0  0
    4.1942  -13.7604   13.1002 C   0  0  0  0  0  0  0  0  0  0  0  0
    2.6202  -12.6247    5.9504 C   0  0  0  0  0  0  0  0  0  0  0  0
    4.3084  -10.7651    5.7538 C   0  0  0  0  0  0  0  0  0  0  0  0
    2.9045  -10.7881   14.1741 C   0  0  0  0  0  0  0  0  0  0  0  0
    2.2862   -8.2869    8.5817 C   0  0  0  0  0  0  0  0  0  0  0  0
    2.5276  -10.6740    7.5148 C   0  0  0  0  0  0  0  0  0  0  0  0
    1.6199   -6.0420    9.1558 O   0  0  0  0  0  0  0  0  0  0  0  0
    1.8491  -10.3595   10.1941 N   0  0  0  0  0  0  0  0  0  0  0  0
    6.0299   -9.2445    8.8022 C   0  0  0  0  0  0  0  0  0  0  0  0
    6.8455   -9.5620    7.8813 O   0  0  0  0  0  0  0  0  0  0  0  0
    7.9523   -9.4730   10.4575 C   0  0  0  0  0  0  0  0  0  0  0  0
    3.2098   -9.4342    7.9894 C   0  0  0  0  0  0  0  0  0  0  0  0
    7.3364   -8.3637   12.7495 C   0  0  0  0  0  0  0  0  0  0  0  0
    2.6145  -10.6939   12.7075 C   0  0  0  0  0  0  0  0  0  0  0  0
    3.5350  -11.6651   11.9772 C   0  0  0  0  0  0  0  0  0  0  0  0
    4.6133   -9.2890    8.5940 N   0  0  0  0  0  0  0  0  0  0  0  0
    1.4668   -8.9459    9.7453 C   0  0  0  0  0  0  0  0  0  0  0  0
    1.2493  -11.1371    7.7818 O   0  0  0  0  0  0  0  0  0  0  0  0
    3.7139   -6.6673    9.6627 O   0  0  0  0  0  0  0  0  0  0  0  0
    2.9064  -11.1389    6.1085 C   0  0  0  0  0  0  0  0  0  0  0  0
    4.9174  -11.6207   15.2986 O   0  0  0  0  0  0  0  0  0  0  0  0
    4.1522  -11.5975   14.2938 C   0  0  0  0  0  0  0  0  0  0  0  0
  1 10  1  0
  1 23  1  0
  2 13  1  0
  3  5  1  0
  3 12  1  0
  4 15  1  0
  4 17  2  0
  4 29  1  0
  6 19  1  0
  6 21  1  0
  7  8  1  0
  7 18  1  0
  8 24  1  0
  9 11  1  0
  9 25  1  0
  9 32  1  0
 10 21  1  0
 12 30  1  0
 13 30  1  0
 14 24  1  0
 14 32  1  0
 15 22  1  0
 15 27  1  0
 16 22  1  0
 16 28  1  0
 16 30  1  0
 18 27  1  0
 19 20  2  0
 19 26  1  0
 22 26  1  0
 24 25  1  0
 31 32  2  0
M  END
>  <ID>  (1) 
conformer_0

$$$$
