
     RDKit          3D

 32 33  0  0  0  0  0  0  0  0999 V2000
    4.9489   -9.6254    8.5556 C   0  0  0  0  0  0  0  0  0  0  0  0
    5.2053  -13.4973    5.4209 C   0  0  0  0  0  0  0  0  0  0  0  0
    4.5548  -10.0400   11.1300 C   0  0  0  0  0  0  0  0  0  0  0  0
    2.0294   -6.4089    9.3623 O   0  0  0  0  0  0  0  0  0  0  0  0
    5.7002  -10.2393   12.0507 C   0  0  0  0  0  0  0  0  0  0  0  0
    1.7185  -11.6327   12.0545 O   0  0  0  0  0  0  0  0  0  0  0  0
    2.9608   -9.5167   13.2071 C   0  0  0  0  0  0  0  0  0  0  0  0
    4.9625  -14.2711    6.5694 C   0  0  0  0  0  0  0  0  0  0  0  0
    3.2769  -10.0866   11.8295 N   0  0  0  0  0  0  0  0  0  0  0  0
    7.1712   -8.7358    8.7311 C   0  0  0  0  0  0  0  0  0  0  0  0
    7.1179  -10.3364   11.7088 C   0  0  0  0  0  0  0  0  0  0  0  0
    1.9228   -9.3737    7.8902 C   0  0  0  0  0  0  0  0  0  0  0  0
    5.3484  -11.5551    6.7903 C   0  0  0  0  0  0  0  0  0  0  0  0
    0.7161  -11.2926    9.4139 C   0  0  0  0  0  0  0  0  0  0  0  0
    2.3136   -9.4519    9.2165 C   0  0  0  0  0  0  0  0  0  0  0  0
    4.9228  -13.7179    7.8132 C   0  0  0  0  0  0  0  0  0  0  0  0
    3.0748   -7.0790    9.5833 C   0  0  0  0  0  0  0  0  0  0  0  0
    4.6741   -8.9553    7.4498 O   0  0  0  0  0  0  0  0  0  0  0  0
    3.0673   -8.4327    9.8179 O   0  0  0  0  0  0  0  0  0  0  0  0
    2.2297  -10.8081   11.3197 C   0  0  0  0  0  0  0  0  0  0  0  0
    6.1177   -9.8028    9.0407 N   0  0  0  0  0  0  0  0  0  0  0  0
    4.1457   -6.4296    9.7210 O   0  0  0  0  0  0  0  0  0  0  0  0
    7.6435  -11.6630   13.6485 O   0  0  0  0  0  0  0  0  0  0  0  0
    5.3941  -12.1120    5.5394 C   0  0  0  0  0  0  0  0  0  0  0  0
    4.9189  -11.8749    9.4393 C   0  0  0  0  0  0  0  0  0  0  0  0
    4.7668  -10.3975    9.7267 C   0  0  0  0  0  0  0  0  0  0  0  0
    1.7544  -10.5141    9.9702 C   0  0  0  0  0  0  0  0  0  0  0  0
    5.1113  -12.3223    7.9725 C   0  0  0  0  0  0  0  0  0  0  0  0
    0.9452  -10.2176    7.3059 C   0  0  0  0  0  0  0  0  0  0  0  0
    7.8808  -10.5505   12.9937 C   0  0  0  0  0  0  0  0  0  0  0  0
    0.3448  -11.1763    8.0828 C   0  0  0  0  0  0  0  0  0  0  0  0
    8.0956   -9.3079   13.7204 C   0  0  0  0  0  0  0  0  0  0  0  0
  1 18  2  0
  1 21  1  0
  1 26  1  0
  2  8  1  0
  2 24  1  0
  3  5  1  0
  3  9  1  0
  3 26  1  0
  4 17  2  0
  5 11  1  0
  6 20  2  0
  7  9  1  0
  8 16  2  0
  9 20  1  0
 10 21  1  0
 11 30  1  0
 12 15  2  0
 12 29  1  0
 13 24  2  0
 13 28  1  0
 14 27  2  0
 14 31  1  0
 15 19  1  0
 15 27  1  0
 16 28  1  0
 17 19  1  0
 17 22  1  0
 20 27  1  0
 23 30  1  0
 25 26  2  3
 25 28  1  0
 29 31  2  0
 30 32  1  0
M  END
>  <ID>  (1) 
conformer_0

$$$$
