
     RDKit          3D

 23 25  0  0  0  0  0  0  0  0999 V2000
    2.0706   -7.6230    8.8153 C   0  0  0  0  0  0  0  0  0  0  0  0
    0.7713   -8.2853    7.7662 C   0  0  0  0  0  0  0  0  0  0  0  0
    8.4580   -8.5662   10.9680 O   0  0  0  0  0  0  0  0  0  0  0  0
    3.1748   -7.6718   10.9571 O   0  0  0  0  0  0  0  0  0  0  0  0
    4.1274   -6.4282    9.3991 O   0  0  0  0  0  0  0  0  0  0  0  0
    0.7412  -11.0515    8.0354 C   0  0  0  0  0  0  0  0  0  0  0  0
    5.2029  -11.1868   11.6079 C   0  0  0  0  0  0  0  0  0  0  0  0
    4.5378  -12.3240   10.9756 C   0  0  0  0  0  0  0  0  0  0  0  0
    1.3228   -6.2923    8.8754 O   0  0  0  0  0  0  0  0  0  0  0  0
    7.9134   -8.7209   12.1245 C   0  0  0  0  0  0  0  0  0  0  0  0
    8.3848   -8.2089   13.1831 O   0  0  0  0  0  0  0  0  0  0  0  0
    1.0422   -9.6933    8.3474 C   0  0  0  0  0  0  0  0  0  0  0  0
    4.6140  -10.3350   12.5522 C   0  0  0  0  0  0  0  0  0  0  0  0
    1.4344  -12.0280    8.7788 N   0  0  0  0  0  0  0  0  0  0  0  0
    6.5397  -10.7587   11.4734 O   0  0  0  0  0  0  0  0  0  0  0  0
    3.2448   -7.2572    9.7656 C   0  0  0  0  0  0  0  0  0  0  0  0
    3.1353  -10.4371    9.4385 C   0  0  0  0  0  0  0  0  0  0  0  0
    6.7650   -9.5942   12.1837 C   0  0  0  0  0  0  0  0  0  0  0  0
    2.5115  -11.7696    9.5859 C   0  0  0  0  0  0  0  0  0  0  0  0
    3.1891  -12.5302   10.5803 O   0  0  0  0  0  0  0  0  0  0  0  0
    2.1912   -9.3167    9.1155 C   0  0  0  0  0  0  0  0  0  0  0  0
    5.5899   -9.3296   12.8933 C   0  0  0  0  0  0  0  0  0  0  0  0
    5.2896  -13.4743   10.7921 N   0  0  0  0  0  0  0  0  0  0  0  0
  1  2  1  0
  1  9  1  0
  1 16  1  0
  1 21  1  0
  2 12  1  0
  3 10  2  0
  4 16  2  0
  5 16  1  0
  6 12  2  0
  6 14  1  0
  7  8  1  0
  7 13  1  0
  7 15  1  0
  8 20  1  0
  8 23  1  0
 10 11  1  0
 10 18  1  0
 12 21  1  0
 13 22  1  0
 14 19  2  0
 15 18  1  0
 17 19  1  0
 17 21  1  0
 18 22  1  0
 19 20  1  0
M  END
>  <ID>  (1) 
conformer_0

$$$$
