
     RDKit          3D

 24 24  0  0  0  0  0  0  0  0999 V2000
    3.7087  -10.0721   12.8956 C   0  0  0  0  0  0  0  0  0  0  0  0
    4.6403  -12.2847   12.1444 C   0  0  0  0  0  0  0  0  0  0  0  0
    3.9089  -10.7834   14.1969 C   0  0  0  0  0  0  0  0  0  0  0  0
    3.9735  -11.0099   11.7229 C   0  0  0  0  0  0  0  0  0  0  0  0
    5.0716  -10.7363   14.6175 O   0  0  0  0  0  0  0  0  0  0  0  0
    5.6936   -6.4577    8.4306 O   0  0  0  0  0  1  0  0  0  0  0  0
    2.8985  -11.3194   14.6218 O   0  0  0  0  0  0  0  0  0  0  0  0
    3.0170   -6.6459   10.5741 O   0  0  0  0  0  0  0  0  0  0  0  0
    4.4812  -10.2926   10.5978 O   0  0  0  0  0  0  0  0  0  0  0  0
    5.3748   -7.6558    9.3310 P   0  0  0  0  0  4  0  0  0  0  0  0
    5.9808   -8.9159    8.4640 O   0  0  0  0  0  0  0  0  0  0  0  0
    1.4216   -7.3002    8.5318 O   0  0  0  0  0  0  0  0  0  0  0  0
    3.4862  -11.6269    8.9672 C   0  0  0  0  0  0  0  0  0  0  0  0
    2.3725  -12.0252    8.0853 C   0  0  0  0  0  0  0  0  0  0  0  0
    2.0625  -11.5947    6.7397 C   0  0  0  0  0  0  0  0  0  0  0  0
    3.8574  -12.7519    9.8224 C   0  0  0  0  0  0  0  0  0  0  0  0
    4.7274  -12.8771   10.8360 N   0  0  0  0  0  0  0  0  0  0  0  0
    0.9168  -10.5324    6.7128 C   0  0  0  0  0  0  0  0  0  0  0  0
    3.6182  -10.1359    9.3504 C   0  0  0  0  0  0  0  0  0  0  0  0
    3.4388  -13.9248    9.3693 O   0  0  0  0  0  0  0  0  0  0  0  0
    6.0598   -7.6583   10.7180 O   0  0  0  0  0  0  0  0  0  0  0  0
    2.9064   -9.3192    8.1392 C   0  0  0  0  0  0  0  0  0  0  0  0
    3.6123   -7.4251    9.6742 C   0  0  0  0  0  0  0  0  0  0  0  0
    2.7103   -7.8320    8.5319 C   0  0  0  0  0  0  0  0  0  0  0  0
  1  3  1  0
  1  4  1  0
  2  4  1  0
  2 17  1  0
  3  5  2  0
  3  7  1  0
  4  9  1  0
  6 10  2  0
  8 23  1  0
  9 19  1  0
 10 11  1  0
 10 21  1  0
 10 23  1  0
 12 24  1  0
 13 14  1  0
 13 16  1  0
 13 19  1  0
 14 15  1  0
 15 18  1  0
 16 17  1  0
 16 20  2  0
 19 22  1  0
 22 24  1  0
 23 24  1  0
M  END
>  <ID>  (1) 
conformer_0

$$$$
