
     RDKit          3D

 31 31  0  0  0  0  0  0  0  0999 V2000
    3.1192   -7.8263    9.9458 O   0  0  0  0  0  0  0  0  0  0  0  0
    7.1538   -9.0904   10.4146 O   0  0  0  0  0  0  0  0  0  0  0  0
    4.5336   -6.2825    9.0106 O   0  0  0  0  0  0  0  0  0  0  0  0
    8.7047   -8.6660    7.9168 C   0  0  0  0  0  0  0  0  0  0  0  0
    7.3232   -8.3545    7.7493 O   0  0  0  0  0  0  0  0  0  0  0  0
    4.3555  -11.0385   15.0228 O   0  0  0  0  0  0  0  0  0  0  0  0
    4.3428   -7.0933    9.9672 C   0  0  0  0  0  0  0  0  0  0  0  0
    9.4655   -8.5311    9.2012 C   0  0  0  0  0  0  0  0  0  0  0  0
    1.4710  -10.7579   12.7724 C   0  0  0  0  0  0  0  0  0  0  0  0
    4.0170  -13.6240   10.0610 S   0  0  0  0  0  0  0  0  0  0  0  0
    3.4149  -11.4209   11.5212 C   0  0  0  0  0  0  0  0  0  0  0  0
    8.6498   -9.6052   10.4285 S   0  0  0  0  0  4  0  0  0  0  0  0
    1.0258   -7.3310    8.8354 C   0  0  0  0  0  0  0  0  0  0  0  0
    2.2794  -12.5786    7.2006 O   0  0  0  0  0  0  0  0  0  0  0  0
    2.2268  -10.7288   13.9869 C   0  0  0  0  0  0  0  0  0  0  0  0
    2.3945   -9.2202    8.0756 C   0  0  0  0  0  0  0  0  0  0  0  0
    5.2128   -7.2567   10.9288 O   0  0  0  0  0  0  0  0  0  0  0  0
    4.0859  -11.8207   10.1691 C   0  0  0  0  0  0  0  0  0  0  0  0
    0.3309  -10.7950    7.0959 C   0  0  0  0  0  0  0  0  0  0  0  0
    5.9638   -9.8336   10.2521 C   0  0  0  0  0  0  0  0  0  0  0  0
    1.4992  -10.4531    7.8940 C   0  0  0  0  0  0  0  0  0  0  0  0
    2.3897  -11.6657    8.0457 C   0  0  0  0  0  0  0  0  0  0  0  0
    2.4235   -7.8547    8.6538 C   0  0  0  0  0  0  0  0  0  0  0  0
    8.6767  -11.0377    9.8895 O   0  0  0  0  0  0  0  0  0  0  0  0
    4.1621  -11.3730   12.6946 C   0  0  0  0  0  0  0  0  0  0  0  0
    3.4835  -11.3755    8.8945 N   0  0  0  0  0  0  0  0  0  0  0  0
    3.6023  -11.0459   13.8935 C   0  0  0  0  0  0  0  0  0  0  0  0
    9.1816   -9.4418   11.7745 O   0  0  0  0  0  0  0  0  0  0  0  0
    2.0611  -11.1186   11.5728 C   0  0  0  0  0  0  0  0  0  0  0  0
    1.1941   -5.8935    8.9978 O   0  0  0  0  0  0  0  0  0  0  0  0
    5.5982  -11.3352   10.1614 C   0  0  0  0  0  0  0  0  0  0  0  0
  1  7  1  0
  1 23  1  0
  2 12  1  0
  2 20  1  0
  3  7  2  0
  4  5  1  0
  4  8  1  0
  6 27  1  0
  7 17  1  0
  8 12  1  0
  9 15  2  0
  9 29  1  0
 10 18  1  0
 11 18  1  0
 11 25  1  0
 11 29  2  0
 12 24  1  0
 12 28  1  0
 13 23  1  0
 13 30  1  0
 14 22  2  0
 15 27  1  0
 16 21  1  0
 16 23  1  0
 18 26  1  0
 18 31  1  0
 19 21  1  0
 20 31  2  3
 21 22  1  0
 22 26  1  0
 25 27  2  0
M  END
>  <ID>  (1) 
conformer_0

$$$$
