
     RDKit          3D

 27 26  0  0  0  0  0  0  0  0999 V2000
    2.0962  -10.6105   10.5704 C   0  0  0  0  0  0  0  0  0  0  0  0
    4.3101   -6.2326   10.4390 O   0  0  0  0  0  0  0  0  0  0  0  0
    3.4890  -11.8235   14.1483 O   0  0  0  0  0  0  0  0  0  0  0  0
    1.8544   -8.3373    9.3416 C   0  0  0  0  0  0  0  0  0  0  0  0
    1.9703  -12.3449    6.6713 N   0  0  0  0  0  0  0  0  0  0  0  0
    1.3672  -11.1274    9.3097 C   0  0  0  0  0  0  0  0  0  0  0  0
    1.9394   -6.0243    9.1857 O   0  0  0  0  0  0  0  0  0  0  0  0
    5.2422  -10.8437   11.8877 C   0  0  0  0  0  0  0  0  0  0  0  0
    1.2290   -8.9540    8.0802 C   0  0  0  0  0  0  0  0  0  0  0  0
    6.5117   -7.9795    9.8464 O   0  0  0  0  0  0  0  0  0  0  0  0
    4.0867   -7.1991    9.5010 C   0  0  0  0  0  0  0  0  0  0  0  0
    5.2093   -8.0445    9.1474 C   0  0  0  0  0  0  0  0  0  0  0  0
    1.9586  -10.9819    6.8708 C   0  0  0  0  0  0  0  0  0  0  0  0
    1.0384   -8.1026    7.0968 O   0  0  0  0  0  0  0  0  0  0  0  0
    6.6630   -8.1252   12.4444 O   0  0  0  0  0  1  0  0  0  0  0  0
    3.1407  -13.9455    5.5118 N   0  0  0  0  0  0  0  0  0  0  0  0
    3.1237  -10.0639    5.9629 C   0  0  0  0  0  0  0  0  0  0  0  0
    2.7296   -7.1343    8.9176 C   0  0  0  0  0  0  0  0  0  0  0  0
    7.0146   -8.8918   11.1337 P   0  0  0  0  0  4  0  0  0  0  0  0
    2.5786  -12.7882    5.4805 C   0  0  0  0  0  0  0  0  0  0  0  0
    2.7476  -10.7773   11.9385 C   0  0  0  0  0  0  0  0  0  0  0  0
    1.2504  -10.4287    8.0092 C   0  0  0  0  0  0  0  0  0  0  0  0
    3.9089  -10.6923   13.9790 C   0  0  0  0  0  0  0  0  0  0  0  0
    6.1569  -10.3022   10.9159 O   0  0  0  0  0  0  0  0  0  0  0  0
    8.5399   -9.2548   11.1233 O   0  0  0  0  0  0  0  0  0  0  0  0
    4.0985   -9.8985   14.9076 O   0  0  0  0  0  0  0  0  0  0  0  0
    4.0505  -10.2375   12.5577 O   0  0  0  0  0  0  0  0  0  0  0  0
  1  6  2  3
  1 21  1  0
  2 11  1  0
  3 23  2  0
  4  9  1  0
  4 18  1  0
  5 13  1  0
  5 20  1  0
  6 22  1  0
  7 18  1  0
  8 24  1  0
  8 27  1  0
  9 14  1  0
  9 22  1  0
 10 12  1  0
 10 19  1  0
 11 12  2  3
 11 18  1  0
 13 17  1  0
 13 22  1  0
 15 19  2  0
 16 20  2  0
 19 24  1  0
 19 25  1  0
 23 26  1  0
 23 27  1  0
M  END
>  <ID>  (1) 
conformer_0

$$$$
