
     RDKit          3D

 33 34  0  0  0  0  0  0  0  0999 V2000
    5.5998  -11.2243    8.4569 C   0  0  0  0  0  0  0  0  0  0  0  0
    2.8023   -8.3712    9.4280 C   0  0  0  0  0  0  0  0  0  0  0  0
    6.4870   -9.0621   13.3511 C   0  0  0  0  0  0  0  0  0  0  0  0
    3.0615  -11.7496   13.3196 C   0  0  0  0  0  0  0  0  0  0  0  0
    0.5722  -11.0656    7.2074 C   0  0  0  0  0  0  0  0  0  0  0  0
    6.1114   -9.8123    8.5069 C   0  0  0  0  0  0  0  0  0  0  0  0
    5.4708   -7.4323    9.2671 C   0  0  0  0  0  0  0  0  0  0  0  0
    4.4531  -13.1700   11.3841 C   0  0  0  0  0  0  0  0  0  0  0  0
    4.4662   -6.5532    9.4252 N   0  0  0  0  0  0  0  0  0  0  0  0
    7.8085   -9.0905   12.8891 C   0  0  0  0  0  0  0  0  0  0  0  0
    0.1541  -10.6951    8.4942 C   0  0  0  0  0  0  0  0  0  0  0  0
    7.3973  -11.3001   11.9710 C   0  0  0  0  0  0  0  0  0  0  0  0
    1.5423  -10.3244    6.5108 C   0  0  0  0  0  0  0  0  0  0  0  0
    7.6764   -8.5676    7.0930 C   0  0  0  0  0  0  0  0  0  0  0  0
    3.1429   -6.9931    9.3589 C   0  0  0  0  0  0  0  0  0  0  0  0
    3.2587   -9.1503   10.5113 N   0  0  0  0  0  0  0  0  0  0  0  0
    6.0541  -11.2409   12.3506 C   0  0  0  0  0  0  0  0  0  0  0  0
    4.5518  -13.5300   10.0649 C   0  0  0  0  0  0  0  0  0  0  0  0
    3.3956  -11.3268   14.6239 O   0  0  0  0  0  0  0  0  0  0  0  0
    3.2827   -9.4282   11.8682 C   0  0  0  0  0  0  0  0  0  0  0  0
    1.1984  -10.4532   12.4427 O   0  0  0  0  0  0  0  0  0  0  0  0
    2.1738   -9.2791    7.1668 C   0  0  0  0  0  0  0  0  0  0  0  0
    2.1497   -6.0767    9.3801 O   0  0  0  0  0  0  0  0  0  0  0  0
    5.4264   -8.6985    8.9020 N   0  0  0  0  0  0  0  0  0  0  0  0
    8.2560  -10.2409   12.2140 C   0  0  0  0  0  0  0  0  0  0  0  0
    2.6369  -10.6231   12.4570 C   0  0  0  0  0  0  0  0  0  0  0  0
    7.6095   -9.6808    8.1946 C   0  0  0  0  0  0  0  0  0  0  0  0
    1.9019   -9.0405    8.5085 C   0  0  0  0  0  0  0  0  0  0  0  0
    0.7600   -9.6108    9.0428 C   0  0  0  0  0  0  0  0  0  0  0  0
    5.2613  -12.2383   11.9809 N   0  0  0  0  0  0  0  0  0  0  0  0
    3.4620  -13.7642   12.1102 N   0  0  0  0  0  0  0  0  0  0  0  0
    2.8885  -13.0977   13.0705 C   0  0  0  0  0  0  0  0  0  0  0  0
    5.6629  -10.1149   13.0494 C   0  0  0  0  0  0  0  0  0  0  0  0
  1  6  1  0
  2 15  1  0
  2 16  1  0
  2 28  1  0
  3 10  2  0
  3 33  1  0
  4 19  1  0
  4 26  1  0
  4 32  1  0
  5 11  1  0
  5 13  1  0
  6 24  1  0
  6 27  1  0
  7  9  1  0
  7 24  2  3
  8 18  2  0
  8 30  1  0
  8 31  1  0
  9 15  1  0
 10 25  1  0
 11 29  2  0
 12 17  1  0
 12 25  2  0
 13 22  2  0
 14 27  1  0
 15 23  2  0
 16 20  1  0
 17 30  1  0
 17 33  2  0
 20 26  1  0
 21 26  1  0
 22 28  1  0
 28 29  1  0
 31 32  2  3
M  END
>  <ID>  (1) 
conformer_0

$$$$
