
     RDKit          3D

 27 30  0  0  0  0  0  0  0  0999 V2000
    7.4331   -9.1710   12.2868 N   0  0  0  0  0  0  0  0  0  0  0  0
    4.2399  -12.2832   13.0900 C   0  0  0  0  0  0  0  0  0  0  0  0
    3.4677   -9.6527   10.7386 C   0  0  0  0  0  0  0  0  0  0  0  0
    2.2992   -8.1883    9.2643 C   0  0  0  0  0  0  0  0  0  0  0  0
    5.4430   -9.9155   12.1243 C   0  0  0  0  0  0  0  0  0  0  0  0
    1.9674   -5.8971    9.4717 O   0  0  0  0  0  0  0  0  0  0  0  0
    3.5376  -11.4559   12.2196 C   0  0  0  0  0  0  0  0  0  0  0  0
    2.8328   -6.9146    9.4790 C   0  0  0  0  0  0  0  0  0  0  0  0
    4.1344  -10.3024   11.7183 C   0  0  0  0  0  0  0  0  0  0  0  0
    1.1881   -8.5544    8.3878 C   0  0  0  0  0  0  0  0  0  0  0  0
    0.2385   -7.7503    8.0539 O   0  0  0  0  0  0  0  0  0  0  0  0
    3.1451  -13.3547    6.2452 C   0  0  0  0  0  0  0  0  0  0  0  0
    0.6504  -10.7054    7.0708 C   0  0  0  0  0  0  0  0  0  0  0  0
    3.2210  -11.5018    7.8967 C   0  0  0  0  0  0  0  0  0  0  0  0
    2.6292  -10.3569    8.4833 C   0  0  0  0  0  0  0  0  0  0  0  0
    1.1666  -11.9173    6.5621 C   0  0  0  0  0  0  0  0  0  0  0  0
    5.5399  -11.8775   13.5195 C   0  0  0  0  0  0  0  0  0  0  0  0
    6.2765   -8.9088   11.6975 N   0  0  0  0  0  0  0  0  0  0  0  0
    7.3602  -10.1223   13.2468 C   0  0  0  0  0  0  0  0  0  0  0  0
    6.0956  -10.7153   13.0425 C   0  0  0  0  0  0  0  0  0  0  0  0
    4.9221   -6.5938   10.4218 O   0  0  0  0  0  0  0  0  0  0  0  0
    1.3870   -9.9028    7.9066 C   0  0  0  0  0  0  0  0  0  0  0  0
    3.0079   -9.4005    9.5233 C   0  0  0  0  0  0  0  0  0  0  0  0
    4.2780   -6.8387    9.2631 C   0  0  0  0  0  0  0  0  0  0  0  0
    2.4980  -12.2294    6.9331 C   0  0  0  0  0  0  0  0  0  0  0  0
    8.7486   -8.8474   11.8106 C   0  0  0  0  0  0  0  0  0  0  0  0
    4.8669   -7.5004    8.1956 O   0  0  0  0  0  0  0  0  0  0  0  0
  1 18  1  0
  1 19  1  0
  1 26  1  0
  2  7  2  0
  2 17  1  0
  3  9  2  0
  3 23  2  0
  4  8  1  0
  4 10  1  0
  4 23  1  0
  5  9  1  0
  5 18  1  0
  5 20  1  0
  6  8  1  0
  7  9  1  0
  8 24  1  0
 10 11  1  0
 10 22  2  0
 12 25  1  0
 13 16  2  0
 13 22  1  0
 14 15  1  0
 14 25  2  0
 15 22  1  0
 15 23  1  0
 16 25  1  0
 17 20  2  0
 19 20  1  0
 21 24  2  0
 24 27  1  0
M  END
>  <ID>  (1) 
conformer_0

$$$$
