
     RDKit          3D

 28 29  0  0  0  0  0  0  0  0999 V2000
    3.6919   -8.5498    9.7457 C   0  0  0  0  0  0  0  0  0  0  0  0
    3.3934  -11.5240   11.9704 C   0  0  0  0  0  0  0  0  0  0  0  0
    1.8877  -13.1654   11.6296 F   0  0  0  0  0  0  0  0  0  0  0  0
    1.3242  -11.2249   10.6190 C   0  0  0  0  0  0  0  0  0  0  0  0
    2.1866  -11.9355   11.4136 C   0  0  0  0  0  0  0  0  0  0  0  0
    3.0810  -13.3679    4.2601 Cl  0  0  0  0  0  0  0  0  0  0  0  0
    4.2060  -10.4447   11.9520 C   0  0  0  0  0  0  0  0  0  0  0  0
    2.3333  -10.8390    6.6458 C   0  0  0  0  0  0  0  0  0  0  0  0
    8.2629   -9.1698   13.0336 C   0  0  0  0  0  0  0  0  0  0  0  0
    4.6449   -5.7934    8.6818 O   0  0  0  0  0  0  0  0  0  0  0  0
    5.0642   -7.0453    8.1696 C   0  0  0  0  0  0  0  0  0  0  0  0
    6.1542   -8.6703    9.5710 O   0  0  0  0  0  0  0  0  0  0  0  0
    4.1258  -11.3555    5.3958 C   0  0  0  0  0  0  0  0  0  0  0  0
    6.9356   -8.7331   13.6346 C   0  0  0  0  0  0  0  0  0  0  0  0
    2.6523   -6.5332   10.5211 O   0  0  0  0  0  0  0  0  0  0  0  0
    2.5524   -7.5731    9.6782 C   0  0  0  0  0  0  0  0  0  0  0  0
    1.4473   -8.0815    8.7442 C   0  0  0  0  0  0  0  0  0  0  0  0
    4.9635   -8.2156    9.0339 C   0  0  0  0  0  0  0  0  0  0  0  0
    5.5389  -10.4299   12.3607 O   0  0  0  0  0  0  0  0  0  0  0  0
    8.6194  -10.5798   13.5081 C   0  0  0  0  0  0  0  0  0  0  0  0
    1.9779  -12.0161    5.9714 C   0  0  0  0  0  0  0  0  0  0  0  0
    3.8656   -9.1972   11.1230 C   0  0  0  0  0  0  0  0  0  0  0  0
    3.0799  -12.3060    5.1981 C   0  0  0  0  0  0  0  0  0  0  0  0
    5.9277   -9.8795   13.5944 C   0  0  0  0  0  0  0  0  0  0  0  0
    1.5102  -10.2139    7.4781 C   0  0  0  0  0  0  0  0  0  0  0  0
    3.6385  -10.4443    6.3043 C   0  0  0  0  0  0  0  0  0  0  0  0
    1.1027  -10.3611    9.7763 C   0  0  0  0  0  0  0  0  0  0  0  0
    1.3789   -9.6189    8.6750 C   0  0  0  0  0  0  0  0  0  0  0  0
  1 16  1  0
  1 18  1  0
  1 22  1  0
  2  5  2  0
  2  7  1  0
  3  5  1  0
  4  5  1  0
  4 27  1  0
  6 23  1  0
  7 19  1  0
  7 22  1  0
  8 21  1  0
  8 25  1  0
  8 26  1  0
  9 14  1  0
  9 20  1  0
 10 11  1  0
 11 18  1  0
 12 18  1  0
 13 23  1  0
 13 26  1  0
 14 24  1  0
 15 16  1  0
 16 17  1  0
 17 28  1  0
 19 24  1  0
 21 23  1  0
 25 28  1  0
 27 28  1  0
M  END
>  <ID>  (1) 
conformer_0

$$$$
