
     RDKit          3D

 31 34  0  0  0  0  0  0  0  0999 V2000
    7.9635   -8.9132   12.9610 C   0  0  0  0  0  0  0  0  0  0  0  0
    2.9840  -12.6997    8.8370 C   0  0  0  0  0  0  0  0  0  0  0  0
    4.2673   -9.4023   11.3201 C   0  0  0  0  0  0  0  0  0  0  0  0
    2.7510  -12.7951    7.4564 C   0  0  0  0  0  0  0  0  0  0  0  0
    4.8929   -7.9066    9.4660 C   0  0  0  0  0  0  0  0  0  0  0  0
    0.6217   -8.1367    8.4523 C   0  0  0  0  0  0  0  0  0  0  0  0
    2.3517   -9.6672   13.5642 C   0  0  0  0  0  0  0  0  0  0  0  0
    1.6912  -10.5713    7.5839 C   0  0  0  0  0  0  0  0  0  0  0  0
    4.0649  -14.6906    7.7574 C   0  0  0  0  0  0  0  0  0  0  0  0
    5.2681   -8.8464   10.4936 C   0  0  0  0  0  0  0  0  0  0  0  0
    8.0064  -10.8918   11.5071 C   0  0  0  0  0  0  0  0  0  0  0  0
    7.4105   -7.6119   13.1541 O   0  0  0  0  0  0  0  0  0  0  0  0
    6.6401   -9.0260   10.8581 C   0  0  0  0  0  0  0  0  0  0  0  0
    3.6265   -7.6283    8.7719 C   0  0  0  0  0  0  0  0  0  0  0  0
    2.1150  -10.4430    8.9440 C   0  0  0  0  0  0  0  0  0  0  0  0
    2.0598   -7.8609    9.0742 C   0  0  0  0  0  0  0  0  0  0  0  0
    2.1840   -9.2519    9.7773 C   0  0  0  0  0  0  0  0  0  0  0  0
    7.0931   -9.7988   12.0436 C   0  0  0  0  0  0  0  0  0  0  0  0
    6.2073  -11.3472   13.7692 C   0  0  0  0  0  0  0  0  0  0  0  0
    3.9615  -11.1259   14.5596 C   0  0  0  0  0  0  0  0  0  0  0  0
    2.8949   -9.1439   11.0283 C   0  0  0  0  0  0  0  0  0  0  0  0
    5.2278  -11.6894   14.6982 C   0  0  0  0  0  0  0  0  0  0  0  0
    1.8597   -6.4560    9.4927 O   0  0  0  0  0  0  0  0  0  0  0  0
    4.6681  -10.0316   12.5864 C   0  0  0  0  0  0  0  0  0  0  0  0
    5.9033   -7.2260    8.8795 O   0  0  0  0  0  0  0  0  0  0  0  0
    5.9542  -10.4161   12.7937 C   0  0  0  0  0  0  0  0  0  0  0  0
    3.2073  -13.8803    6.8079 O   0  0  0  0  0  0  0  0  0  0  0  0
    0.2767   -7.1314    7.5430 O   0  0  0  0  0  0  0  0  0  0  0  0
    2.6022  -11.6086    9.5574 C   0  0  0  0  0  0  0  0  0  0  0  0
    2.0025  -11.7266    6.8252 C   0  0  0  0  0  0  0  0  0  0  0  0
    3.6928  -10.2884   13.5227 C   0  0  0  0  0  0  0  0  0  0  0  0
  1 12  1  0
  1 18  1  0
  2  4  2  0
  2 29  1  0
  3 10  2  0
  3 21  1  0
  3 24  1  0
  4 27  1  0
  4 30  1  0
  5 10  1  0
  5 14  1  0
  5 25  1  0
  6 16  1  0
  6 28  1  0
  7 31  1  0
  8 15  2  0
  8 30  1  0
  9 27  1  0
 10 13  1  0
 11 18  1  0
 13 18  1  0
 14 16  1  0
 15 17  1  0
 15 29  1  0
 16 17  1  0
 16 23  1  0
 17 21  1  0
 18 26  1  0
 19 22  1  0
 19 26  2  0
 20 22  1  0
 20 31  2  0
 24 26  1  0
 24 31  1  0
M  END
>  <ID>  (1) 
conformer_0

$$$$
