
     RDKit          3D

 23 24  0  0  0  0  0  0  0  0999 V2000
    2.2482  -10.8140    6.8599 C   0  0  0  0  0  0  0  0  0  0  0  0
    8.4885  -10.1539   13.3518 C   0  0  0  0  0  0  0  0  0  0  0  0
    0.0233   -7.8387    7.6601 Cl  0  0  0  0  0  0  0  0  0  0  0  0
    1.8037  -12.0340    6.1044 C   0  0  0  0  0  0  0  0  0  0  0  0
    4.3476   -9.2528   11.3835 N   0  0  0  0  0  0  0  0  0  0  0  0
    3.6775  -13.3727    6.8464 C   0  0  0  0  0  0  0  0  0  0  0  0
    7.1702   -9.4756   12.9388 C   0  0  0  0  0  0  0  0  0  0  0  0
    4.5598  -12.2941   13.1539 C   0  0  0  0  0  0  0  0  0  0  0  0
    4.8390  -10.3116   12.1420 N   0  0  0  0  0  0  0  0  0  0  0  0
    1.9184  -11.0343    8.4262 C   0  0  0  0  0  0  0  0  0  0  0  0
    6.0316  -10.5405   12.8371 C   0  0  0  0  0  0  0  0  0  0  0  0
    3.3219   -9.0812   10.2659 C   0  0  0  0  0  0  0  0  0  0  0  0
    5.8919  -11.7869   13.5460 C   0  0  0  0  0  0  0  0  0  0  0  0
    3.9340  -11.3255   12.3540 C   0  0  0  0  0  0  0  0  0  0  0  0
    1.7066   -6.0837    9.1679 O   0  0  0  0  0  0  0  0  0  0  0  0
    6.8258   -8.4263   14.0197 C   0  0  0  0  0  0  0  0  0  0  0  0
    2.2492   -7.3062    8.9930 C   0  0  0  0  0  0  0  0  0  0  0  0
    2.9406  -12.8163    5.5810 C   0  0  0  0  0  0  0  0  0  0  0  0
    3.3425   -7.6284    9.8685 C   0  0  0  0  0  0  0  0  0  0  0  0
    4.0239   -6.6162   10.4120 O   0  0  0  0  0  0  0  0  0  0  0  0
    2.3348   -9.7141    9.1760 C   0  0  0  0  0  0  0  0  0  0  0  0
    1.5136   -8.5332    8.4623 C   0  0  0  0  0  0  0  0  0  0  0  0
    7.2909   -8.8425   11.7596 O   0  0  0  0  0  0  0  0  0  0  0  0
  1  4  1  0
  1 10  1  0
  2  7  1  0
  3 22  1  0
  4 18  1  0
  5  9  1  0
  5 12  2  3
  6 18  1  0
  7 11  1  0
  7 16  1  0
  7 23  1  0
  8 13  1  0
  8 14  1  0
  9 11  1  0
  9 14  1  0
 10 21  1  0
 11 13  1  0
 12 19  1  0
 12 21  1  0
 15 17  1  0
 17 19  1  0
 17 22  1  0
 19 20  1  0
 21 22  1  0
M  END
>  <ID>  (1) 
conformer_0

$$$$
