
     RDKit          3D

 15 14  0  0  0  0  0  0  0  0999 V2000
    1.2389   -8.2009    8.4344 C   0  0  0  0  0  0  0  0  0  0  0  0
    2.2714   -6.3372    9.4389 O   0  0  0  0  0  0  0  0  0  0  0  0
    3.3330  -12.2938    8.7733 C   0  0  0  0  0  0  0  0  0  0  0  0
    3.6001   -8.2454    9.5836 C   0  0  0  0  0  0  0  0  0  0  0  0
    6.7601   -9.4690   10.2546 O   0  0  0  0  0  0  0  0  0  0  0  0
    4.0995  -10.2337   14.2614 C   0  0  0  0  0  0  0  0  0  0  0  0
    2.4166  -10.2704   12.3395 C   0  0  0  0  0  0  0  0  0  0  0  0
    2.4887   -7.6081    9.2256 C   0  0  0  0  0  0  0  0  0  0  0  0
    3.8762  -10.4589   10.2825 C   0  0  0  0  0  0  0  0  0  0  0  0
    5.7604   -8.7242   10.5583 C   0  0  0  0  0  0  0  0  0  0  0  0
    5.9722   -7.6510   11.2235 O   0  0  0  0  0  0  0  0  0  0  0  0
    2.7903  -10.8833   13.6316 C   0  0  0  0  0  0  0  0  0  0  0  0
    4.2384  -11.4551    9.4158 O   0  0  0  0  0  0  0  0  0  0  0  0
    4.3706   -9.1462   10.1207 C   0  0  0  0  0  0  0  0  0  0  0  0
    2.8652  -10.7021   11.1222 C   0  0  0  0  0  0  0  0  0  0  0  0
  1  8  1  0
  2  8  1  0
  3 13  1  0
  4  8  2  0
  4 14  2  0
  5 10  2  0
  6 12  1  0
  7 12  1  0
  7 15  1  0
  9 13  1  0
  9 14  1  0
  9 15  1  0
 10 11  1  0
 10 14  1  0
M  END
>  <ID>  (1) 
conformer_0

$$$$
