
     RDKit          3D

 31 31  0  0  0  0  0  0  0  0999 V2000
    3.7233  -11.1991   10.5607 C   0  0  0  0  0  0  0  0  0  0  0  0
    4.1102  -11.2872   14.3019 C   0  0  0  0  0  0  0  0  0  0  0  0
    2.7905  -12.3287   10.1733 C   0  0  0  0  0  0  0  0  0  0  0  0
    1.0320   -9.5208    7.9274 C   0  0  0  0  0  0  0  0  0  0  0  0
    2.1977   -7.0908    9.7934 O   0  0  0  0  0  0  0  0  0  0  0  0
    3.1423  -13.2219    9.0016 C   0  0  0  0  0  0  0  0  0  0  0  0
    2.5660  -10.0000   13.0664 C   0  0  0  0  0  0  0  0  0  0  0  0
    4.5262  -11.8168    7.2894 C   0  0  0  0  0  0  0  0  0  0  0  0
    7.2607   -8.7408    9.7935 P   0  0  0  0  0  4  0  0  0  0  0  0
    4.8662  -11.8878   15.2105 O   0  0  0  0  0  0  0  0  0  0  0  0
    4.6723   -6.4307   10.3451 O   0  0  0  0  0  0  0  0  0  0  0  0
    3.1744  -11.1620    6.9578 C   0  0  0  0  0  0  0  0  0  0  0  0
    4.5683   -7.6115    9.6341 C   0  0  0  0  0  0  0  0  0  0  0  0
    0.2880   -7.2080    7.5878 O   0  0  0  0  0  0  0  0  0  0  0  0
    3.4150  -10.7972   12.0453 C   0  0  0  0  0  0  0  0  0  0  0  0
    2.7958  -10.6618   14.4109 C   0  0  0  0  0  0  0  0  0  0  0  0
    2.6713  -13.4181    5.7867 N   0  0  0  0  0  0  0  0  0  0  0  0
    3.5063   -9.6489   10.7236 C   0  0  0  0  0  0  0  0  0  0  0  0
    5.9528   -7.7182    8.7775 C   0  0  0  0  0  0  0  0  0  0  0  0
    4.3410  -11.6471   12.9052 C   0  0  0  0  0  0  0  0  0  0  0  0
    1.5790   -9.2870    6.4967 C   0  0  0  0  0  0  0  0  0  0  0  0
    8.6460   -8.4492    9.1290 O   0  0  0  0  0  1  0  0  0  0  0  0
    6.8668  -10.2592    9.6299 O   0  0  0  0  0  0  0  0  0  0  0  0
    0.2490   -8.3315    8.4748 C   0  0  0  0  0  0  0  0  0  0  0  0
    4.4409  -12.9671   12.5330 O   0  0  0  0  0  0  0  0  0  0  0  0
    3.1575   -9.6680    6.4860 C   0  0  0  0  0  0  0  0  0  0  0  0
    7.2576   -8.3209   11.2869 O   0  0  0  0  0  0  0  0  0  0  0  0
    4.6604   -8.2004    8.4139 O   0  0  0  0  0  0  0  0  0  0  0  0
    4.2728  -13.2517    7.9442 C   0  0  0  0  0  0  0  0  0  0  0  0
    2.3863  -12.0445    5.9628 C   0  0  0  0  0  0  0  0  0  0  0  0
    3.0896   -8.1383   10.2705 C   0  0  0  0  0  0  0  0  0  0  0  0
  1  3  1  0
  1 15  1  0
  1 18  1  0
  2 10  1  0
  2 16  1  0
  2 20  1  0
  3  6  2  3
  4 21  1  0
  4 24  1  0
  5 31  1  0
  6 29  1  0
  7 15  1  0
  7 16  1  0
  8 12  1  0
  8 29  1  0
  9 19  1  0
  9 22  2  0
  9 23  1  0
  9 27  1  0
 11 13  2  0
 12 26  1  0
 12 30  1  0
 13 28  1  0
 13 31  1  0
 14 24  1  0
 15 20  1  0
 17 30  1  0
 18 31  1  0
 19 28  1  0
 20 25  1  0
 21 26  1  0
M  END
>  <ID>  (1) 
conformer_0

$$$$
