
     RDKit          3D

 32 34  0  0  0  0  0  0  0  0999 V2000
    5.5091  -14.6313   13.8612 C   0  0  0  0  0  0  0  0  0  0  0  0
    3.6751   -7.2903    9.4632 C   0  0  0  0  0  0  0  0  0  0  0  0
    7.4065   -8.3826    9.3535 C   0  0  0  0  0  0  0  0  0  0  0  0
    6.2526  -11.1165    8.8834 C   0  0  0  0  0  0  0  0  0  0  0  0
    4.5659  -14.1871   12.8996 C   0  0  0  0  0  0  0  0  0  0  0  0
    5.8669  -10.7166   12.2569 C   0  0  0  0  0  0  0  0  0  0  0  0
    2.5204   -7.5500    8.7405 O   0  0  0  0  0  0  0  0  0  0  0  0
    6.1291   -7.8651    8.7158 C   0  0  0  0  0  0  0  0  0  0  0  0
    2.5982  -11.4335   12.2374 C   0  0  0  0  0  0  0  0  0  0  0  0
    0.3519  -10.4699    9.3937 O   0  0  0  0  0  0  0  0  0  0  0  0
    3.5395  -12.3847   11.5739 C   0  0  0  0  0  0  0  0  0  0  0  0
    9.0253   -8.7794   11.4170 O   0  0  0  0  0  0  0  0  0  0  0  0
    2.5308   -9.6816    9.9960 C   0  0  0  0  0  0  0  0  0  0  0  0
    1.6345  -10.8890   10.0949 C   0  0  0  0  0  0  0  0  0  0  0  0
    2.2503  -12.1178    9.4342 C   0  0  0  0  0  0  0  0  0  0  0  0
    7.1777  -11.3210   10.1259 C   0  0  0  0  0  0  0  0  0  0  0  0
    4.6236  -12.8852   12.4145 C   0  0  0  0  0  0  0  0  0  0  0  0
    6.7566   -7.9121   11.8634 O   0  0  0  0  0  0  0  0  0  0  0  0
   -0.0444   -8.7243    7.7590 O   0  0  0  0  0  0  0  0  0  0  0  0
    7.0858  -10.4517   11.3933 C   0  0  0  0  0  0  0  0  0  0  0  0
    6.4972  -13.7830   14.3329 C   0  0  0  0  0  0  0  0  0  0  0  0
    1.2527  -11.2694   11.5062 C   0  0  0  0  0  0  0  0  0  0  0  0
    7.5875   -8.8237   11.0307 P   0  0  0  0  0  0  0  0  0  0  0  0
    6.1614   -7.9518    7.3674 O   0  0  0  0  0  0  0  0  0  0  0  0
    0.0490   -7.3065    7.7516 C   0  0  0  0  0  0  0  0  0  0  0  0
    4.8040   -8.0553    9.2268 N   0  0  0  0  0  0  0  0  0  0  0  0
    0.5924   -9.2907    8.8277 C   0  0  0  0  0  0  0  0  0  0  0  0
    6.5989  -12.5065   13.8099 C   0  0  0  0  0  0  0  0  0  0  0  0
    3.6835   -6.4666   10.3760 O   0  0  0  0  0  0  0  0  0  0  0  0
    2.8758  -13.0594   10.4745 C   0  0  0  0  0  0  0  0  0  0  0  0
    1.8704   -8.7817    9.0886 N   0  0  0  0  0  0  0  0  0  0  0  0
    5.6843  -12.0726   12.8247 C   0  0  0  0  0  0  0  0  0  0  0  0
  1  5  2  0
  1 21  1  0
  2  7  1  0
  2 26  1  0
  2 29  2  0
  3  8  1  0
  4 16  1  0
  5 17  1  0
  6 20  1  0
  6 32  1  0
  7 31  1  0
  8 24  2  0
  8 26  1  0
  9 11  1  0
  9 22  1  0
 10 14  1  0
 10 27  1  0
 11 17  1  0
 11 30  1  0
 12 23  1  0
 13 14  1  0
 13 31  1  0
 14 15  1  0
 14 22  1  0
 15 30  1  0
 16 20  1  0
 17 32  2  0
 18 23  1  0
 19 25  1  0
 19 27  1  0
 20 23  1  0
 21 28  2  0
 27 31  1  0
 28 32  1  0
M  END
>  <ID>  (1) 
conformer_0

$$$$
