
     RDKit          3D

 22 22  0  0  0  0  0  0  0  0999 V2000
    3.8703  -12.5195   11.6549 C   0  0  0  0  0  0  0  0  0  0  0  0
    0.8361  -10.9429    9.4919 C   0  0  0  0  0  0  0  0  0  0  0  0
    2.8023   -6.9392   10.8646 O   0  0  0  0  0  0  0  0  0  0  0  0
    4.7221   -6.5817   10.0477 O   0  0  0  0  0  0  0  0  0  0  0  0
    3.8301   -8.6955    9.5105 C   0  0  0  0  0  0  0  0  0  0  0  0
    8.4115   -8.9024   10.8650 C   0  0  0  0  0  0  0  0  0  0  0  0
    7.5891   -8.9010   12.1663 C   0  0  0  0  0  0  0  0  0  0  0  0
    7.7643   -8.6324   13.6944 C   0  0  0  0  0  0  0  0  0  0  0  0
    6.4267   -9.7843   12.0229 C   0  0  0  0  0  0  0  0  0  0  0  0
    1.5042  -11.8436    8.5192 N   0  0  0  0  0  0  0  0  0  0  0  0
    1.2347  -11.5198    7.1461 C   0  0  0  0  0  0  0  0  0  0  0  0
    3.9197  -10.1443   11.4588 C   0  0  0  0  0  0  0  0  0  0  0  0
    0.7426  -10.1757    6.8989 C   0  0  0  0  0  0  0  0  0  0  0  0
    1.1944   -9.1352    7.9243 C   0  0  0  0  0  0  0  0  0  0  0  0
    5.0423   -9.2602   11.9351 C   0  0  0  0  0  0  0  0  0  0  0  0
    2.9110   -9.8181   10.2430 C   0  0  0  0  0  0  0  0  0  0  0  0
    0.2514   -7.9312    7.8278 C   0  0  0  0  0  0  0  0  0  0  0  0
    0.7613   -6.7681    8.3801 O   0  0  0  0  0  0  0  0  0  0  0  0
    3.5511  -11.2059   12.2062 O   0  0  0  0  0  0  0  0  0  0  0  0
    7.7585   -8.1043    9.8503 O   0  0  0  0  0  0  0  0  0  0  0  0
    3.7833   -7.3379   10.2204 C   0  0  0  0  0  0  0  0  0  0  0  0
    1.5157   -9.6154    9.3558 C   0  0  0  0  0  0  0  0  0  0  0  0
  1 19  1  0
  2 10  1  0
  2 22  1  0
  3 21  2  0
  4 21  1  0
  5 16  1  0
  5 21  1  0
  6  7  1  0
  6 20  1  0
  7  8  1  0
  7  9  1  0
  9 15  2  3
 10 11  1  0
 11 13  1  0
 12 15  1  0
 12 16  1  0
 12 19  1  0
 13 14  1  0
 14 17  1  0
 14 22  1  0
 16 22  1  0
 17 18  1  0
M  END
>  <ID>  (1) 
conformer_0

$$$$
