
     RDKit          3D

 28 30  0  0  0  0  0  0  0  0999 V2000
    4.0168  -11.1128   13.9945 C   0  0  0  0  0  0  0  0  0  0  0  0
    5.2780   -8.2638    8.4157 C   0  0  0  0  0  0  0  0  0  0  0  0
    2.8746  -11.2001   11.0353 C   0  0  0  0  0  0  0  0  0  0  0  0
    1.6789  -11.5113    6.4073 C   0  0  0  0  0  0  0  0  0  0  0  0
    3.9977   -7.9839    9.2501 C   0  0  0  0  0  0  0  0  0  0  0  0
    3.0100  -12.6032    7.9725 C   0  0  0  0  0  0  0  0  0  0  0  0
    2.5031  -12.6601    6.6151 C   0  0  0  0  0  0  0  0  0  0  0  0
    8.3161   -9.6102   13.5730 O   0  0  0  0  0  0  0  0  0  0  0  0
    6.0855   -9.5435   14.0439 C   0  0  0  0  0  0  0  0  0  0  0  0
    2.8343  -10.2202   13.4478 C   0  0  0  0  0  0  0  0  0  0  0  0
    7.1085   -7.9960   12.6577 O   0  0  0  0  0  0  0  0  0  0  0  0
    1.4732  -10.9241    7.6562 C   0  0  0  0  0  0  0  0  0  0  0  0
    2.1830   -6.3013    9.4042 O   0  0  0  0  0  0  0  0  0  0  0  0
    4.4126   -7.1942   10.2846 O   0  0  0  0  0  0  0  0  0  0  0  0
    1.5217   -8.3145    8.3028 C   0  0  0  0  0  0  0  0  0  0  0  0
    5.2236  -10.4779   13.2786 C   0  0  0  0  0  0  0  0  0  0  0  0
    7.2640   -8.9854   13.2985 C   0  0  0  0  0  0  0  0  0  0  0  0
    2.6947   -7.3654    8.6378 C   0  0  0  0  0  0  0  0  0  0  0  0
    3.6892   -9.3675    9.6956 O   0  0  0  0  0  0  0  0  0  0  0  0
    3.6618  -12.3705   13.5169 O   0  0  0  0  0  0  0  0  0  0  0  0
    2.8752  -10.6051    9.6405 C   0  0  0  0  0  0  0  0  0  0  0  0
    2.1307  -12.3216   11.1298 O   0  0  0  0  0  0  0  0  0  0  0  0
    2.3159  -11.5727    8.6596 C   0  0  0  0  0  0  0  0  0  0  0  0
    0.4470   -7.5315    7.6847 O   0  0  0  0  0  0  0  0  0  0  0  0
    4.2746  -11.1116   15.3017 O   0  0  0  0  0  0  0  0  0  0  0  0
    3.2987  -10.1142   12.0111 C   0  0  0  0  0  0  0  0  0  0  0  0
    0.8185   -9.7320    8.3447 C   0  0  0  0  0  0  0  0  0  0  0  0
    4.7277   -9.8657   12.0675 O   0  0  0  0  0  0  0  0  0  0  0  0
  1 10  1  0
  1 16  1  0
  1 20  1  0
  1 25  1  0
  2  5  1  0
  3 21  1  0
  3 22  1  0
  3 26  1  0
  4  7  1  0
  4 12  1  0
  5 14  1  0
  5 18  1  0
  5 19  1  0
  6  7  1  0
  6 23  1  0
  8 17  2  0
  9 16  1  0
  9 17  1  0
 10 26  1  0
 11 17  1  0
 12 23  1  0
 12 27  1  0
 13 18  1  0
 15 18  1  0
 15 24  1  0
 15 27  1  0
 16 28  1  0
 19 21  1  0
 21 23  1  0
 26 28  1  0
M  END
>  <ID>  (1) 
conformer_0

$$$$
