
     RDKit          3D

 23 23  0  0  0  0  0  0  0  0999 V2000
    5.2701   -6.8462    9.0221 O   0  0  0  0  0  0  0  0  0  0  0  0
    1.2157   -8.8542    8.3935 N   0  0  0  0  0  0  0  0  0  0  0  0
    1.2221  -12.5681   10.7873 O   0  0  0  0  0  0  0  0  0  0  0  0
    2.1468  -11.8307   10.5150 C   0  0  0  0  0  0  0  0  0  0  0  0
    3.2653  -12.1121   11.2138 O   0  0  0  0  0  0  0  0  0  0  0  0
    6.7310  -10.2550   12.2282 C   0  0  0  0  0  0  0  0  0  0  0  0
    7.1391   -7.9773   12.3236 O   0  0  0  0  0  0  0  0  0  0  0  0
    7.5000   -9.1214   12.7279 C   0  0  0  0  0  0  0  0  0  0  0  0
    0.8895  -10.2183    8.5481 C   0  0  0  0  0  0  0  0  0  0  0  0
    4.1302   -9.7758   10.6728 C   0  0  0  0  0  0  0  0  0  0  0  0
    2.9458   -9.6286    9.6329 C   0  0  0  0  0  0  0  0  0  0  0  0
    8.7273  -10.7272   13.9033 O   0  0  0  0  0  0  0  0  0  0  0  0
    0.6549  -10.9039    7.0244 C   0  0  0  0  0  0  0  0  0  0  0  0
    3.9409   -7.0599   10.7320 O   0  0  0  0  0  0  0  0  0  0  0  0
    5.7085   -9.4612    8.6253 O   0  0  0  0  0  0  0  0  0  0  0  0
    0.3355   -7.8612    7.8526 C   0  0  0  0  0  0  0  0  0  0  0  0
    4.7882   -7.5672    9.9571 C   0  0  0  0  0  0  0  0  0  0  0  0
    5.8790  -10.8111   13.0608 O   0  0  0  0  0  0  0  0  0  0  0  0
    8.3876   -9.4103   13.8147 C   0  0  0  0  0  0  0  0  0  0  0  0
    2.4501   -8.4996    8.8971 C   0  0  0  0  0  0  0  0  0  0  0  0
    6.5274  -10.1617   10.7835 C   0  0  0  0  0  0  0  0  0  0  0  0
    5.4695   -9.0478   10.1057 C   0  0  0  0  0  0  0  0  0  0  0  0
    1.9356  -10.7531    9.4915 C   0  0  0  0  0  0  0  0  0  0  0  0
  1 17  2  0
  2  9  1  0
  2 16  1  0
  2 20  1  0
  3  4  2  0
  4  5  1  0
  4 23  1  0
  6  8  1  0
  6 18  1  0
  6 21  1  0
  7  8  2  0
  8 19  1  0
  9 13  1  0
  9 23  1  0
 10 11  1  0
 10 22  1  0
 11 20  1  0
 11 23  2  0
 12 19  1  0
 14 17  1  0
 15 22  1  0
 17 22  1  0
 21 22  1  0
M  END
>  <ID>  (1) 
conformer_0

$$$$
