
     RDKit          3D

 18 17  0  0  0  0  0  0  0  0999 V2000
    2.8498  -10.8886    9.5710 C   0  0  0  0  0  0  0  0  0  0  0  0
    3.8092   -6.9350   10.0356 O   0  0  0  0  0  0  0  0  0  0  0  0
    6.6522   -9.7325   12.7856 C   0  0  0  0  0  0  0  0  0  0  0  0
    7.9770  -10.2740   12.4352 C   0  0  0  0  0  0  0  0  0  0  0  0
    4.9833  -10.1705   10.9188 C   0  0  0  0  0  0  0  0  0  0  0  0
    3.4899   -8.3093    9.7609 C   0  0  0  0  0  0  0  0  0  0  0  0
    1.5254   -6.0207    9.0127 O   0  0  0  0  0  0  0  0  0  0  0  0
    3.4724  -12.2482   10.2063 C   0  0  0  0  0  0  0  0  0  0  0  0
    3.8053   -9.7723   10.1040 C   0  0  0  0  0  0  0  0  0  0  0  0
    6.1996   -8.0593   11.2020 O   0  0  0  0  0  0  0  0  0  0  0  0
    2.4791   -8.3262    8.5789 C   0  0  0  0  0  0  0  0  0  0  0  0
    2.2743  -10.3198    7.1238 C   0  0  0  0  0  0  0  0  0  0  0  0
    1.2473  -11.3786    6.8460 C   0  0  0  0  0  0  0  0  0  0  0  0
    1.2719   -7.4255    8.8842 C   0  0  0  0  0  0  0  0  0  0  0  0
    2.6287  -13.2740   10.5016 N   0  0  0  0  0  0  0  0  0  0  0  0
    2.0291   -9.8133    8.5296 O   0  0  0  0  0  0  0  0  0  0  0  0
    6.5662   -8.8657   13.9545 C   0  0  0  0  0  0  0  0  0  0  0  0
    5.8905   -9.2513   11.6297 C   0  0  0  0  0  0  0  0  0  0  0  0
  1  8  1  0
  1  9  1  0
  2  6  1  0
  3  4  1  0
  3 17  1  0
  3 18  1  0
  5  9  2  3
  5 18  1  0
  6  9  1  0
  6 11  1  0
  7 14  1  0
  8 15  1  0
 10 18  1  0
 11 14  1  0
 11 16  1  0
 12 13  1  0
 12 16  1  0
M  END
>  <ID>  (1) 
conformer_0

$$$$
