
     RDKit          3D

 22 22  0  0  0  0  0  0  0  0999 V2000
    1.4592  -10.3610    9.1333 C   0  0  0  0  0  0  0  0  0  0  0  0
    0.2878   -7.1947    7.6364 O   0  0  0  0  0  0  0  0  0  0  0  0
    3.4035  -11.6211   11.1027 C   0  0  0  0  0  0  0  0  0  0  0  0
    2.6933   -6.3446    9.8509 O   0  0  0  0  0  0  0  0  0  0  0  0
    3.4804   -7.4218    9.4751 C   0  0  0  0  0  0  0  0  0  0  0  0
    6.1974   -9.2845   11.2344 C   0  0  0  0  0  0  0  0  0  0  0  0
    3.9576   -8.4330   10.4257 O   0  0  0  0  0  0  0  0  0  0  0  0
    6.7192   -8.4422   12.2303 O   0  0  0  0  0  0  0  0  0  0  0  0
    8.8881   -9.0829   12.7095 C   0  0  0  0  0  0  0  0  0  0  0  0
    4.2385  -10.6683   11.9614 C   0  0  0  0  0  0  0  0  0  0  0  0
    5.3455   -8.6459   10.2029 C   0  0  0  0  0  0  0  0  0  0  0  0
    7.5405   -9.1302   13.1303 C   0  0  0  0  0  0  0  0  0  0  0  0
    2.7332   -8.1985    8.3327 C   0  0  0  0  0  0  0  0  0  0  0  0
    3.6011   -9.2329    7.8611 O   0  0  0  0  0  0  0  0  0  0  0  0
    1.1112  -12.0170   10.7528 O   0  0  0  0  0  0  0  0  0  0  0  0
    5.6776  -10.5159   11.7090 O   0  0  0  0  0  0  0  0  0  0  0  0
    0.5151   -8.6597    7.6455 C   0  0  0  0  0  0  0  0  0  0  0  0
    5.9941   -7.7390    9.4364 O   0  0  0  0  0  0  0  0  0  0  0  0
    2.0912  -11.1271   10.2676 C   0  0  0  0  0  0  0  0  0  0  0  0
    0.3998  -11.0143    8.5756 O   0  0  0  0  0  0  0  0  0  0  0  0
    7.0773   -9.8936   13.9332 O   0  0  0  0  0  0  0  0  0  0  0  0
    1.4190   -8.8471    8.9339 C   0  0  0  0  0  0  0  0  0  0  0  0
  1 19  1  0
  1 20  1  0
  1 22  1  0
  2 17  1  0
  3 10  1  0
  3 19  1  0
  4  5  1  0
  5  7  1  0
  5 13  1  0
  6  8  1  0
  6 11  1  0
  6 16  1  0
  7 11  1  0
  8 12  1  0
  9 12  1  0
 10 16  1  0
 11 18  2  0
 12 21  2  0
 13 14  1  0
 13 22  1  0
 15 19  1  0
 17 22  1  0
M  END
>  <ID>  (1) 
conformer_0

$$$$
