
     RDKit          3D

 27 27  0  0  0  0  0  0  0  0999 V2000
    4.8683   -8.7608    8.7685 C   0  0  0  0  0  0  0  0  0  0  0  0
    3.8330   -9.2893   11.1843 C   0  0  0  0  0  0  0  0  0  0  0  0
    7.4628   -9.2610    9.1976 C   0  0  0  0  0  0  0  0  0  0  0  0
    2.8114  -10.1838   10.3928 C   0  0  0  0  0  0  0  0  0  0  0  0
    2.5185  -10.1262    7.4733 O   0  0  0  0  0  0  0  0  0  0  0  0
    2.0927   -6.3192    9.5152 O   0  0  0  0  0  0  0  0  0  0  0  0
    3.0975   -7.1041    9.7306 C   0  0  0  0  0  0  0  0  0  0  0  0
    6.4026   -9.0123   13.8010 O   0  0  0  0  0  0  0  0  0  0  0  0
    2.2162   -8.7954    8.0241 C   0  0  0  0  0  0  0  0  0  0  0  0
    2.4824  -11.4038    8.0754 C   0  0  0  0  0  0  0  0  0  0  0  0
    4.0477   -6.4795   10.3402 O   0  0  0  0  0  0  0  0  0  0  0  0
    7.3268   -9.7210   10.6420 C   0  0  0  0  0  0  0  0  0  0  0  0
    0.8261   -8.3995    8.3872 C   0  0  0  0  0  0  0  0  0  0  0  0
    6.3090   -8.3959    8.8874 O   0  0  0  0  0  0  0  0  0  0  0  0
    0.2345   -7.3264    7.7295 O   0  0  0  0  0  0  0  0  0  0  0  0
    0.3478  -11.0952    9.4949 O   0  0  0  0  0  1  0  0  0  0  0  0
    2.1223  -12.5312    6.0766 O   0  0  0  0  0  0  0  0  0  0  0  0
    5.1837   -8.6795   11.3433 O   0  0  0  0  0  0  0  0  0  0  0  0
    1.8323  -11.3403    9.6584 S   0  0  0  0  0  4  0  0  0  0  0  0
    2.8223  -12.5995    7.3345 C   0  0  0  0  0  0  0  0  0  0  0  0
    1.9449   -9.8384   12.9764 C   0  0  0  0  0  0  0  0  0  0  0  0
    3.5029   -9.8290   12.6744 C   0  0  0  0  0  0  0  0  0  0  0  0
    3.4074   -8.2240    8.8009 C   0  0  0  0  0  0  0  0  0  0  0  0
    6.6379   -8.6528   11.4788 C   0  0  0  0  0  0  0  0  0  0  0  0
    1.9784  -12.5854   10.4540 O   0  0  0  0  0  1  0  0  0  0  0  0
    7.1636   -8.6687   12.8944 C   0  0  0  0  0  0  0  0  0  0  0  0
    8.3441   -8.3762   13.0576 O   0  0  0  0  0  0  0  0  0  0  0  0
  1 14  1  0
  1 23  1  0
  2  4  1  0
  2 18  1  0
  2 22  1  0
  3 12  1  0
  3 14  1  0
  4 19  1  0
  5  9  1  0
  5 10  1  0
  6  7  2  0
  7 11  1  0
  7 23  1  0
  8 26  2  0
  9 13  1  0
  9 23  2  0
 10 19  1  0
 10 20  1  0
 12 24  1  0
 13 15  1  0
 16 19  1  0
 17 20  1  0
 18 24  1  0
 19 25  1  0
 21 22  1  0
 24 26  1  0
 26 27  1  0
M  END
>  <ID>  (1) 
conformer_0

$$$$
