
     RDKit          3D

 20 21  0  0  0  0  0  0  0  0999 V2000
    8.6995   -8.2138   13.0502 O   0  0  0  0  0  1  0  0  0  0  0  0
    6.7604   -9.0003   14.1459 O   0  0  0  0  0  1  0  0  0  0  0  0
    4.0550   -7.9205   10.2276 C   0  0  0  0  0  0  0  0  0  0  0  0
    0.0554   -8.0338    7.7830 Cl  0  0  0  0  0  0  0  0  0  0  0  0
    2.2146  -12.5680    6.7333 C   0  0  0  0  0  0  0  0  0  0  0  0
    6.5570   -8.2805   11.9284 O   0  0  0  0  0  0  0  0  0  0  0  0
    1.1566  -10.4309    7.3461 N   0  0  0  0  0  0  0  0  0  0  0  0
    1.2281   -9.2833    8.0991 C   0  0  0  0  0  0  0  0  0  0  0  0
    5.6035   -9.3631   11.6705 C   0  0  0  0  0  0  0  0  0  0  0  0
    3.5420  -10.1848   10.7934 O   0  0  0  0  0  0  0  0  0  0  0  0
    2.3131   -6.5211    9.4062 O   0  0  0  0  0  0  0  0  0  0  0  0
    2.8086  -10.2014    9.5798 C   0  0  0  0  0  0  0  0  0  0  0  0
    2.0218  -11.4851    7.6842 C   0  0  0  0  0  0  0  0  0  0  0  0
    3.4967  -12.6132    9.5341 C   0  0  0  0  0  0  0  0  0  0  0  0
    4.2311   -8.9929   11.1879 C   0  0  0  0  0  0  0  0  0  0  0  0
    4.7277   -6.7600   10.4248 O   0  0  0  0  0  0  0  0  0  0  0  0
    7.4105   -8.5125   13.0727 P   0  0  0  0  0  0  0  0  0  0  0  0
    2.7420  -11.4078    8.9021 C   0  0  0  0  0  0  0  0  0  0  0  0
    2.6555   -7.8050    9.7702 C   0  0  0  0  0  0  0  0  0  0  0  0
    2.1687   -9.0752    9.1272 C   0  0  0  0  0  0  0  0  0  0  0  0
  1 17  1  0
  2 17  1  0
  3 15  1  0
  3 16  1  0
  3 19  1  0
  4  8  1  0
  5 13  1  0
  6  9  1  0
  6 17  1  0
  7  8  2  0
  7 13  1  0
  8 20  1  0
  9 15  1  0
 10 12  1  0
 10 15  1  0
 11 19  1  0
 12 18  2  0
 12 20  1  0
 13 18  1  0
 14 18  1  0
 19 20  1  0
M  END
>  <ID>  (1) 
conformer_0

$$$$
