
     RDKit          3D

 23 23  0  0  0  0  0  0  0  0999 V2000
    3.9430   -9.0880   11.3175 C   0  0  0  0  0  0  0  0  0  0  0  0
    6.4958   -8.5435   13.8956 O   0  0  0  0  0  1  0  0  0  0  0  0
    3.9918   -7.6270    8.1177 O   0  0  0  0  0  0  0  0  0  0  0  0
    0.6017   -9.9684    7.3927 C   0  0  0  0  0  0  0  0  0  0  0  0
    1.6939   -9.7056    8.2165 C   0  0  0  0  0  0  0  0  0  0  0  0
    3.8832  -13.5417    9.1220 N   0  0  0  0  0  0  0  0  0  0  0  0
    5.9866   -7.9356   10.9015 O   0  0  0  0  0  0  0  0  0  0  0  0
    5.4377   -9.0894   11.2075 C   0  0  0  0  0  0  0  0  0  0  0  0
    0.5052  -11.1456    6.6621 C   0  0  0  0  0  0  0  0  0  0  0  0
    6.1684  -10.2799   11.7256 C   0  0  0  0  0  0  0  0  0  0  0  0
    8.5094   -8.9812   12.4255 O   0  0  0  0  0  0  0  0  0  0  0  0
    4.7663  -12.4944    9.7120 C   0  0  0  0  0  0  0  0  0  0  0  0
    1.0188   -7.3600    8.4278 O   0  0  0  0  0  0  0  0  0  0  0  0
    1.4682  -12.1058    6.8262 C   0  0  0  0  0  0  0  0  0  0  0  0
    1.8158   -8.3619    8.9227 C   0  0  0  0  0  0  0  0  0  0  0  0
    2.6318  -10.6640    8.3474 C   0  0  0  0  0  0  0  0  0  0  0  0
    3.2227   -8.0379    9.1924 C   0  0  0  0  0  0  0  0  0  0  0  0
    2.5773  -11.9267    7.7022 C   0  0  0  0  0  0  0  0  0  0  0  0
    3.5448   -6.3846   10.8097 O   0  0  0  0  0  0  0  0  0  0  0  0
    7.2582   -9.6387   13.0871 P   0  0  0  0  0  4  0  0  0  0  0  0
    3.5326  -13.1173    7.7526 C   0  0  0  0  0  0  0  0  0  0  0  0
    3.4252   -7.8015   10.6770 C   0  0  0  0  0  0  0  0  0  0  0  0
    7.6066  -10.8198   13.9677 O   0  0  0  0  0  0  0  0  0  0  0  0
  1  8  1  0
  1 22  1  0
  2 20  2  0
  3 17  1  0
  4  5  1  0
  4  9  1  0
  5 15  1  0
  5 16  2  0
  6 12  1  0
  6 21  1  0
  7  8  1  0
  8 10  1  0
  9 14  2  0
 10 20  1  0
 11 20  1  0
 13 15  1  0
 14 18  1  0
 15 17  1  0
 16 18  1  0
 17 22  1  0
 18 21  1  0
 19 22  1  0
 20 23  1  0
M  END
>  <ID>  (1) 
conformer_0

$$$$
