
     RDKit          3D

 19 21  0  0  0  0  0  0  0  0999 V2000
    5.1171  -11.8805   12.7651 O   0  0  0  0  0  0  0  0  0  0  0  0
    1.7089   -9.1557    7.4222 C   0  0  0  0  0  0  0  0  0  0  0  0
    0.9559  -10.2225    6.8812 C   0  0  0  0  0  0  0  0  0  0  0  0
    2.4580   -9.3046    8.5864 C   0  0  0  0  0  0  0  0  0  0  0  0
    4.5466  -10.9916   12.1052 C   0  0  0  0  0  0  0  0  0  0  0  0
    5.1721   -9.8568   11.3953 C   0  0  0  0  0  0  0  0  0  0  0  0
    3.0938  -10.4585   10.4779 C   0  0  0  0  0  0  0  0  0  0  0  0
    6.6244   -9.2530   13.3981 C   0  0  0  0  0  0  0  0  0  0  0  0
    1.6469  -11.5638    8.7419 C   0  0  0  0  0  0  0  0  0  0  0  0
    4.0306   -6.4267   10.3638 O   0  0  0  0  0  0  0  0  0  0  0  0
    2.0853   -6.4289    9.3395 O   0  0  0  0  0  0  0  0  0  0  0  0
    2.3723  -10.4927    9.2697 C   0  0  0  0  0  0  0  0  0  0  0  0
    6.3295   -9.1320   11.9664 C   0  0  0  0  0  0  0  0  0  0  0  0
    0.9556  -11.4408    7.5286 C   0  0  0  0  0  0  0  0  0  0  0  0
    3.1387   -7.0382    9.7020 C   0  0  0  0  0  0  0  0  0  0  0  0
    4.1174   -9.2843   10.4535 C   0  0  0  0  0  0  0  0  0  0  0  0
    3.4692   -8.4239    9.2864 C   0  0  0  0  0  0  0  0  0  0  0  0
    7.0323   -8.3299   11.3010 O   0  0  0  0  0  0  0  0  0  0  0  0
    3.2710  -11.1595   11.6210 N   0  0  0  0  0  0  0  0  0  0  0  0
  1  5  2  0
  2  3  1  0
  2  4  1  0
  3 14  2  0
  4 12  2  0
  4 17  1  0
  5  6  1  0
  5 19  1  0
  6 13  1  0
  6 16  1  0
  7 12  1  0
  7 16  1  0
  7 19  1  0
  8 13  1  0
  9 12  1  0
  9 14  1  0
 10 15  2  0
 11 15  1  0
 13 18  2  0
 15 17  1  0
 16 17  1  0
M  END
>  <ID>  (1) 
conformer_0

$$$$
