
     RDKit          3D

 24 25  0  0  0  0  0  0  0  0999 V2000
    5.2142  -10.8086   12.2237 N   0  0  0  0  0  0  0  0  0  0  0  0
    2.0631   -8.6989    8.0100 C   0  0  0  0  0  0  0  0  0  0  0  0
    6.5643  -10.2947   12.5703 C   0  0  0  0  0  0  0  0  0  0  0  0
    0.6967   -6.7268    8.3074 O   0  0  0  0  0  0  0  0  0  0  0  0
    3.7898  -14.1977    5.7740 C   0  0  0  0  0  0  0  0  0  0  0  0
    2.3944  -12.3048    6.4336 C   0  0  0  0  0  0  0  0  0  0  0  0
    3.8818  -10.3396    8.2746 C   0  0  0  0  0  0  0  0  0  0  0  0
    2.6120   -7.8002    9.9547 C   0  0  0  0  0  0  0  0  0  0  0  0
    6.7109   -7.8948   12.2152 O   0  0  0  0  0  0  0  0  0  0  0  0
    3.1232   -9.2262   11.8843 O   0  0  0  0  0  0  0  0  0  0  0  0
    3.3969   -9.8995   10.6527 C   0  0  0  0  0  0  0  0  0  0  0  0
    1.7849   -9.9040    7.0448 C   0  0  0  0  0  0  0  0  0  0  0  0
    3.1586   -6.6643    9.5113 O   0  0  0  0  0  0  0  0  0  0  0  0
    3.4120  -13.4131    7.0184 C   0  0  0  0  0  0  0  0  0  0  0  0
    3.5970  -12.2632   12.7935 O   0  0  0  0  0  0  0  0  0  0  0  0
    8.1752   -9.1490   11.0503 O   0  0  0  0  0  0  0  0  0  0  0  0
    5.8188   -9.3428   10.4703 O   0  0  0  0  0  0  0  0  0  0  0  0
    0.7051   -8.1351    8.3496 C   0  0  0  0  0  0  0  0  0  0  0  0
    5.2171  -11.9245   14.2670 O   0  0  0  0  0  0  0  0  0  0  0  0
    3.1031   -9.1144    9.1945 C   0  0  0  0  0  0  0  0  0  0  0  0
    6.8691   -9.0847   11.5718 C   0  0  0  0  0  0  0  0  0  0  0  0
    4.8845  -10.4304   10.7976 C   0  0  0  0  0  0  0  0  0  0  0  0
    4.6415  -11.6756   13.1608 C   0  0  0  0  0  0  0  0  0  0  0  0
    2.7637  -11.0619    7.3459 C   0  0  0  0  0  0  0  0  0  0  0  0
  1  3  1  0
  1 22  1  0
  1 23  1  0
  2 12  1  0
  2 18  1  0
  2 20  1  0
  3 21  1  0
  4 18  1  0
  5 14  1  0
  6 14  1  0
  6 24  1  0
  7 20  1  0
  7 24  1  0
  8 13  1  0
  8 20  1  0
  9 21  1  0
 10 11  1  0
 11 20  1  0
 11 22  1  0
 12 24  1  0
 15 23  2  0
 16 21  1  0
 17 21  1  0
 17 22  1  0
 19 23  1  0
M  END
>  <ID>  (1) 
conformer_0

$$$$
