
     RDKit          3D

 25 28  0  0  0  0  0  0  0  0999 V2000
    0.5788   -7.3653    7.9759 O   0  0  0  0  0  0  0  0  0  0  0  0
    1.0718  -10.8053    7.4360 C   0  0  0  0  0  0  0  0  0  0  0  0
    2.1766  -10.6917    8.2499 C   0  0  0  0  0  0  0  0  0  0  0  0
    6.3843   -8.6264   11.5414 S   0  0  0  0  0  4  0  0  0  0  0  0
    3.6591  -11.2013   10.7290 C   0  0  0  0  0  0  0  0  0  0  0  0
    4.0324   -8.4394   10.2515 C   0  0  0  0  0  0  0  0  0  0  0  0
    2.6076   -6.6242    9.7997 O   0  0  0  0  0  0  0  0  0  0  0  0
    4.0602   -9.8724   10.1963 N   0  0  0  0  0  0  0  0  0  0  0  0
    2.8937  -11.9864    8.4722 C   0  0  0  0  0  0  0  0  0  0  0  0
    0.3850   -9.6387    7.2561 C   0  0  0  0  0  0  0  0  0  0  0  0
    2.9142   -7.9083    9.4033 C   0  0  0  0  0  0  0  0  0  0  0  0
    3.6877  -14.6260    8.9694 C   0  0  0  0  0  0  0  0  0  0  0  0
    5.5995  -11.5076   14.3012 C   0  0  0  0  0  0  0  0  0  0  0  0
    5.2243   -7.8391   10.7321 O   0  0  0  0  0  0  0  0  0  0  0  0
    3.7074  -13.6957   10.0117 C   0  0  0  0  0  0  0  0  0  0  0  0
    5.9611  -10.1538   13.7813 C   0  0  0  0  0  0  0  0  0  0  0  0
    3.4229  -12.3412    9.7474 C   0  0  0  0  0  0  0  0  0  0  0  0
    3.0692  -12.9324    7.4378 C   0  0  0  0  0  0  0  0  0  0  0  0
    7.0665   -7.8402   12.5401 O   0  0  0  0  0  0  0  0  0  0  0  0
    7.3075   -9.2335   10.5572 O   0  0  0  0  0  0  0  0  0  0  0  0
    5.4770   -9.9173   12.3457 C   0  0  0  0  0  0  0  0  0  0  0  0
    3.4298  -14.2330    7.6488 N   0  0  0  0  0  0  0  0  0  0  0  0
    2.1644   -9.0980    8.6381 C   0  0  0  0  0  0  0  0  0  0  0  0
    1.0159   -8.6219    7.9571 C   0  0  0  0  0  0  0  0  0  0  0  0
    4.7602  -11.2871   11.8308 C   0  0  0  0  0  0  0  0  0  0  0  0
  1 24  1  0
  2  3  1  0
  2 10  1  0
  3  9  1  0
  3 23  1  0
  4 14  1  0
  4 19  1  0
  4 20  1  0
  4 21  1  0
  5  8  1  0
  5 17  1  0
  5 25  1  0
  6  8  1  0
  6 11  1  0
  6 14  1  0
  7 11  1  0
  9 17  1  0
  9 18  1  0
 10 24  1  0
 11 23  1  0
 12 15  2  0
 12 22  1  0
 13 16  1  0
 15 17  1  0
 16 21  1  0
 18 22  2  0
 21 25  1  0
 23 24  2  0
M  END
>  <ID>  (1) 
conformer_0

$$$$
