
     RDKit          3D

 30 34  0  0  0  0  0  0  0  0999 V2000
    2.4127  -11.2116   11.4339 N   0  0  0  0  0  0  0  0  0  0  0  0
    0.0906   -7.7409    7.2677 O   0  0  0  0  0  0  0  0  0  0  0  0
    2.1857   -6.8851    9.4131 C   0  0  0  0  0  0  0  0  0  0  0  0
    8.1464   -8.3847    9.0019 C   0  0  0  0  0  0  0  0  0  0  0  0
    1.3909  -10.7583   10.6669 N   0  0  0  0  0  0  0  0  0  0  0  0
    5.5050  -10.3418   13.3480 C   0  0  0  0  0  0  0  0  0  0  0  0
    2.5363  -12.8117    9.1183 O   0  0  0  0  0  0  0  0  0  0  0  0
    6.7391   -8.8286   11.2881 C   0  0  0  0  0  0  0  0  0  0  0  0
    7.0781   -8.5162    9.8869 C   0  0  0  0  0  0  0  0  0  0  0  0
    1.5575  -10.5516    9.2264 C   0  0  0  0  0  0  0  0  0  0  0  0
    1.8037  -11.8944    7.0333 C   0  0  0  0  0  0  0  0  0  0  0  0
    0.5896   -9.8848    6.4529 O   0  0  0  0  0  0  0  0  0  0  0  0
    7.6808   -8.0215    7.7165 C   0  0  0  0  0  0  0  0  0  0  0  0
    3.4984  -11.1037   12.2617 C   0  0  0  0  0  0  0  0  0  0  0  0
    3.1931   -6.3902   10.2017 C   0  0  0  0  0  0  0  0  0  0  0  0
    4.8243   -8.2697   10.1838 N   0  0  0  0  0  0  0  0  0  0  0  0
    4.1682   -7.1831   10.6099 C   0  0  0  0  0  0  0  0  0  0  0  0
    0.6862   -8.9398    7.4591 C   0  0  0  0  0  0  0  0  0  0  0  0
    5.3838  -11.2271   14.3319 C   0  0  0  0  0  0  0  0  0  0  0  0
    1.7152  -10.7316    6.1718 C   0  0  0  0  0  0  0  0  0  0  0  0
    5.8820   -8.2150    9.2314 C   0  0  0  0  0  0  0  0  0  0  0  0
    4.7107  -10.1705   12.2543 C   0  0  0  0  0  0  0  0  0  0  0  0
    1.9796  -11.7374    8.4793 C   0  0  0  0  0  0  0  0  0  0  0  0
    1.9000   -8.1169    9.1988 C   0  0  0  0  0  0  0  0  0  0  0  0
    3.4258  -12.0446   13.2401 C   0  0  0  0  0  0  0  0  0  0  0  0
    4.3389  -12.1467   14.2791 C   0  0  0  0  0  0  0  0  0  0  0  0
    1.4086   -9.2473    8.6811 C   0  0  0  0  0  0  0  0  0  0  0  0
    5.2438   -9.1832   11.3033 N   0  0  0  0  0  0  0  0  0  0  0  0
    6.0920   -7.9232    7.6662 S   0  0  0  0  0  0  0  0  0  0  0  0
    7.3791   -8.4149   12.2488 O   0  0  0  0  0  0  0  0  0  0  0  0
  1  5  1  0
  1 14  1  0
  2 18  2  0
  3 15  1  0
  3 24  2  0
  4  9  1  0
  4 13  1  0
  5 10  1  0
  6 19  2  0
  6 22  1  0
  7 23  1  0
  8  9  1  0
  8 28  1  0
  8 30  2  0
  9 21  2  0
 10 23  1  0
 10 27  1  0
 11 20  1  0
 11 23  1  0
 12 18  1  0
 12 20  1  0
 13 29  1  0
 14 22  1  0
 14 25  2  0
 15 17  1  0
 16 17  1  0
 16 21  1  0
 16 28  1  0
 18 27  1  0
 19 26  1  0
 21 29  1  0
 22 28  1  0
 24 27  2  0
 25 26  1  0
M  END
>  <ID>  (1) 
conformer_0

$$$$
