
     RDKit          3D

 25 25  0  0  0  0  0  0  0  0999 V2000
    3.6594  -12.5846   10.3745 C   0  0  0  0  0  0  0  0  0  0  0  0
    2.5737  -12.2467    8.2120 N   0  0  0  0  0  0  0  0  0  0  0  0
    2.2751  -10.9456    8.6242 C   0  0  0  0  0  0  0  0  0  0  0  0
    5.1963   -7.3969    9.3198 P   0  0  0  0  0  0  0  0  0  0  0  0
    6.5113  -11.0904   13.4828 C   0  0  0  0  0  0  0  0  0  0  0  0
    2.2159   -7.3588    9.3762 C   0  0  0  0  0  0  0  0  0  0  0  0
    3.3480  -11.2932   10.7430 C   0  0  0  0  0  0  0  0  0  0  0  0
    1.8776   -6.0907    9.3473 O   0  0  0  0  0  0  0  0  0  0  0  0
    1.7012   -8.3553    8.3389 C   0  0  0  0  0  0  0  0  0  0  0  0
    6.0615   -9.8128   12.8320 C   0  0  0  0  0  0  0  0  0  0  0  0
    3.7975  -10.6924   12.0515 C   0  0  0  0  0  0  0  0  0  0  0  0
    4.7780   -9.7828   12.2646 O   0  0  0  0  0  0  0  0  0  0  0  0
    4.7259   -6.0874    8.9611 O   0  0  0  0  0  1  0  0  0  0  0  0
    2.6018  -10.6202    9.8982 C   0  0  0  0  0  0  0  0  0  0  0  0
    6.5429   -7.7601    9.4430 O   0  0  0  0  0  1  0  0  0  0  0  0
    3.6029  -14.4504    8.7714 C   0  0  0  0  0  0  0  0  0  0  0  0
    2.9037  -10.8997   12.9911 O   0  0  0  0  0  0  0  0  0  0  0  0
    6.8585   -8.6417   13.3717 C   0  0  0  0  0  0  0  0  0  0  0  0
    7.9242   -8.2755   12.6006 O   0  0  0  0  0  0  0  0  0  0  0  0
    3.0905   -7.8968   10.4649 C   0  0  0  0  0  0  0  0  0  0  0  0
    0.3311   -7.7200    7.8167 C   0  0  0  0  0  0  0  0  0  0  0  0
    3.2505  -13.0704    9.1204 C   0  0  0  0  0  0  0  0  0  0  0  0
    1.6512   -9.8720    7.7562 C   0  0  0  0  0  0  0  0  0  0  0  0
    1.8431  -10.2253    6.2487 C   0  0  0  0  0  0  0  0  0  0  0  0
    4.2387   -8.5227    9.8033 O   0  0  0  0  0  0  0  0  0  0  0  0
  1  7  2  0
  1 22  1  0
  2  3  1  0
  2 22  2  0
  3 14  2  0
  3 23  1  0
  4 13  1  0
  4 15  1  0
  4 25  1  0
  5 10  1  0
  6  8  1  0
  6  9  1  0
  6 20  1  0
  7 11  1  0
  7 14  1  0
  9 21  1  0
  9 23  1  0
 10 12  1  0
 10 18  1  0
 11 12  1  0
 11 17  2  0
 16 22  1  0
 18 19  1  0
 20 25  1  0
 23 24  1  0
M  END
>  <ID>  (1) 
conformer_0

$$$$
