
     RDKit          3D

 27 28  0  0  0  0  0  0  0  0999 V2000
    3.0041  -12.9756    9.3778 C   0  0  0  0  0  0  0  0  0  0  0  0
    3.2500   -7.7760    8.9561 C   0  0  0  0  0  0  0  0  0  0  0  0
    2.3841   -7.0993    9.7410 O   0  0  0  0  0  0  0  0  0  0  0  0
    4.7596   -6.5260   10.3052 O   0  0  0  0  0  0  0  0  0  0  0  0
    6.9934   -8.1497   11.1833 O   0  0  0  0  0  0  0  0  0  0  0  0
    3.0787  -13.8782    8.4430 O   0  0  0  0  0  0  0  0  0  0  0  0
    3.4380  -10.2477   14.8361 C   0  0  0  0  0  0  0  0  0  0  0  0
    1.5197   -9.5791    8.2649 C   0  0  0  0  0  0  0  0  0  0  0  0
    2.4430  -10.3451   12.0878 O   0  0  0  0  0  0  0  0  0  0  0  0
    5.3839  -12.2740   12.2775 C   0  0  0  0  0  0  0  0  0  0  0  0
    4.7083   -7.7845    9.5819 C   0  0  0  0  0  0  0  0  0  0  0  0
    0.4777   -8.4721    7.7850 C   0  0  0  0  0  0  0  0  0  0  0  0
    1.3041  -10.7291    7.2762 C   0  0  0  0  0  0  0  0  0  0  0  0
    6.2816  -11.0863   11.7550 C   0  0  0  0  0  0  0  0  0  0  0  0
    0.4475   -7.0832    7.9475 O   0  0  0  0  0  0  0  0  0  0  0  0
    4.1943  -10.4429   13.5635 N   0  0  0  0  0  0  0  0  0  0  0  0
    2.1573  -11.9064    9.1474 N   0  0  0  0  0  0  0  0  0  0  0  0
    2.9431  -14.2977   11.5655 C   0  0  0  0  0  0  0  0  0  0  0  0
    3.6239  -13.1970   10.7079 C   0  0  0  0  0  0  0  0  0  0  0  0
    5.5995   -9.9118   13.8270 C   0  0  0  0  0  0  0  0  0  0  0  0
    6.6690   -9.9940   12.7556 C   0  0  0  0  0  0  0  0  0  0  0  0
    1.3728  -12.0295    7.9759 O   0  0  0  0  0  0  0  0  0  0  0  0
    2.8627   -8.9261    8.2211 O   0  0  0  0  0  0  0  0  0  0  0  0
    6.1550   -8.3553    9.9382 C   0  0  0  0  0  0  0  0  0  0  0  0
    7.7090   -9.0901   12.1059 C   0  0  0  0  0  0  0  0  0  0  0  0
    3.4504  -10.8973   12.3807 C   0  0  0  0  0  0  0  0  0  0  0  0
    3.9596  -12.0208   11.6214 N   0  0  0  0  0  0  0  0  0  0  0  0
  1  6  2  0
  1 17  1  0
  1 19  1  0
  2  3  2  0
  2 11  1  0
  2 23  1  0
  4 11  1  0
  5 24  1  0
  5 25  1  0
  7 16  1  0
  8 12  1  0
  8 13  1  0
  8 23  1  0
  9 26  2  0
 10 14  1  0
 10 27  1  0
 11 24  1  0
 12 15  1  0
 13 22  1  0
 14 21  1  0
 16 20  1  0
 16 26  1  0
 17 22  1  0
 18 19  1  0
 19 27  1  0
 20 21  1  0
 21 25  1  0
 26 27  1  0
M  END
>  <ID>  (1) 
conformer_0

$$$$
