
     RDKit          3D

 27 27  0  0  0  0  0  0  0  0999 V2000
    4.4268   -6.6873    9.8838 O   0  0  0  0  0  0  0  0  0  0  0  0
    5.8541   -9.7689    8.5550 O   0  0  0  0  0  0  0  0  0  0  0  0
    3.3889  -14.9824    8.1045 O   0  0  0  0  0  0  0  0  0  0  0  0
    4.7501  -10.3875    9.1025 C   0  0  0  0  0  0  0  0  0  0  0  0
    3.6986  -12.7475    8.8905 C   0  0  0  0  0  0  0  0  0  0  0  0
    1.4397   -8.5134    7.6427 C   0  0  0  0  0  0  0  0  0  0  0  0
    2.2712   -6.5213    9.7347 O   0  0  0  0  0  0  0  0  0  0  0  0
    8.1237   -9.3949    7.8489 C   0  0  0  0  0  0  0  0  0  0  0  0
    4.0294  -14.2221    8.8150 C   0  0  0  0  0  0  0  0  0  0  0  0
    3.2196   -7.6234    9.7875 C   0  0  0  0  0  0  0  0  0  0  0  0
    5.1396  -14.5499    9.4011 O   0  0  0  0  0  0  0  0  0  0  0  0
    8.1216   -9.2407    9.3376 C   0  0  0  0  0  0  0  0  0  0  0  0
    0.9298   -9.9374    7.2348 C   0  0  0  0  0  0  0  0  0  0  0  0
    2.4412   -8.6972    8.8326 C   0  0  0  0  0  0  0  0  0  0  0  0
    9.1743   -9.7555    9.9895 O   0  0  0  0  0  0  0  0  0  0  0  0
    7.5270   -8.2563    9.9886 O   0  0  0  0  0  0  0  0  0  0  0  0
    4.0966   -9.8998   10.3403 C   0  0  0  0  0  0  0  0  0  0  0  0
    1.8431   -9.7803    9.7013 O   0  0  0  0  0  0  0  0  0  0  0  0
    0.2249   -7.6283    7.9431 C   0  0  0  0  0  0  0  0  0  0  0  0
    3.7571  -10.5713   12.5989 O   0  0  0  0  0  0  0  0  0  0  0  0
    7.2037  -10.3093    8.5863 C   0  0  0  0  0  0  0  0  0  0  0  0
    4.9354  -11.8829    9.0588 C   0  0  0  0  0  0  0  0  0  0  0  0
    2.7311  -10.5947   10.4846 C   0  0  0  0  0  0  0  0  0  0  0  0
    2.5634  -10.3587   11.9615 C   0  0  0  0  0  0  0  0  0  0  0  0
    3.8890  -10.1962   13.9303 C   0  0  0  0  0  0  0  0  0  0  0  0
    3.8399   -8.6025   10.8482 O   0  0  0  0  0  0  0  0  0  0  0  0
    1.4702   -9.9995   12.4593 O   0  0  0  0  0  0  0  0  0  0  0  0
  1 10  1  0
  2  4  1  0
  2 21  1  0
  3  9  2  0
  4 17  1  0
  4 22  1  0
  5  9  1  0
  5 22  1  0
  6 13  1  0
  6 14  1  0
  6 19  1  0
  7 10  1  0
  8 12  1  0
  8 21  1  0
  9 11  1  0
 10 14  1  0
 10 26  1  0
 12 15  2  0
 12 16  1  0
 14 18  1  0
 17 23  1  0
 17 26  1  0
 18 23  1  0
 20 24  1  0
 20 25  1  0
 23 24  1  0
 24 27  2  0
M  END
>  <ID>  (1) 
conformer_0

$$$$
