
     RDKit          3D

 21 21  0  0  0  0  0  0  0  0999 V2000
    3.7596  -10.1944   15.0127 O   0  0  0  0  0  0  0  0  0  0  0  0
    5.7603   -7.3174   11.3407 O   0  0  0  0  0  1  0  0  0  0  0  0
    3.6321   -8.5864    9.8693 C   0  0  0  0  0  0  0  0  0  0  0  0
    7.2081   -7.8949    9.4287 O   0  0  0  0  0  0  0  0  0  0  0  0
    2.8354   -9.7739   10.2527 O   0  0  0  0  0  0  0  0  0  0  0  0
    2.8798  -10.2661   11.5749 C   0  0  0  0  0  0  0  0  0  0  0  0
    1.8152  -12.4902    7.0090 N   0  0  0  0  0  0  0  0  0  0  0  0
    2.4251   -6.3947    9.4933 O   0  0  0  0  0  0  0  0  0  0  0  0
    1.4560  -10.1875    6.6829 C   0  0  0  0  0  0  0  0  0  0  0  0
    1.5889   -8.3585    8.4388 C   0  0  0  0  0  0  0  0  0  0  0  0
    1.9557   -9.7615    8.0160 C   0  0  0  0  0  0  0  0  0  0  0  0
    2.3547  -11.3797   11.9746 N   0  0  0  0  0  0  0  0  0  0  0  0
    6.3008   -8.4029   10.5391 P   0  0  0  0  0  4  0  0  0  0  0  0
    3.3164  -10.4495   13.8182 C   0  0  0  0  0  0  0  0  0  0  0  0
    5.0356   -9.1241    9.8226 O   0  0  0  0  0  0  0  0  0  0  0  0
    3.4639   -9.6738   12.6947 N   0  0  0  0  0  0  0  0  0  0  0  0
    2.7190   -7.6883    9.1550 C   0  0  0  0  0  0  0  0  0  0  0  0
    7.0306   -9.3541   11.4878 O   0  0  0  0  0  0  0  0  0  0  0  0
    2.6170  -11.5230   13.3732 N   0  0  0  0  0  0  0  0  0  0  0  0
    2.5547  -10.5457    9.0678 C   0  0  0  0  0  0  0  0  0  0  0  0
    2.0381  -11.4429    6.1923 C   0  0  0  0  0  0  0  0  0  0  0  0
  1 14  2  0
  2 13  2  0
  3 15  1  0
  3 17  1  0
  4 13  1  0
  5  6  1  0
  5 20  1  0
  6 12  2  0
  6 16  1  0
  7 21  1  0
  8 17  1  0
  9 11  1  0
  9 21  1  0
 10 11  1  0
 10 17  1  0
 11 20  1  0
 12 19  1  0
 13 15  1  0
 13 18  1  0
 14 16  1  0
 14 19  1  0
M  END
>  <ID>  (1) 
conformer_0

$$$$
