
     RDKit          3D

 32 33  0  0  0  0  0  0  0  0999 V2000
    1.4998  -11.6211    6.1762 C   0  0  0  0  0  0  0  0  0  0  0  0
    2.0205  -14.7564   12.3770 O   0  0  0  0  0  0  0  0  0  0  0  0
    6.8445   -9.5894   12.6527 P   0  0  0  0  0  4  0  0  0  0  0  0
    3.3113  -10.8509    8.1662 C   0  0  0  0  0  0  0  0  0  0  0  0
    8.1348   -8.3845    9.3573 O   0  0  0  0  0  0  0  0  0  0  0  0
    3.3341   -7.5946    8.6367 C   0  0  0  0  0  0  0  0  0  0  0  0
    8.3398   -9.1401   12.2651 O   0  0  0  0  0  1  0  0  0  0  0  0
    3.3669  -14.3405   12.4912 C   0  0  0  0  0  0  0  0  0  0  0  0
    4.9683  -12.4080   11.6893 O   0  0  0  0  0  0  0  0  0  0  0  0
    4.7702   -7.5529    8.2927 C   0  0  0  0  0  0  0  0  0  0  0  0
    5.3040  -11.0996   12.0093 C   0  0  0  0  0  0  0  0  0  0  0  0
    2.5563  -11.0853   14.3219 O   0  0  0  0  0  0  0  0  0  0  0  0
    2.3672   -8.4686    7.9237 C   0  0  0  0  0  0  0  0  0  0  0  0
    5.1370   -8.3294    7.1347 O   0  0  0  0  0  0  0  0  0  0  0  0
    0.9341   -8.2692    8.3090 C   0  0  0  0  0  0  0  0  0  0  0  0
    6.9505   -8.7638    9.2874 C   0  0  0  0  0  0  0  0  0  0  0  0
    6.6123  -10.0178    9.1158 O   0  0  0  0  0  0  0  0  0  0  0  0
    1.5268  -10.3631    6.6700 C   0  0  0  0  0  0  0  0  0  0  0  0
    3.2126  -11.2416   13.1899 C   0  0  0  0  0  0  0  0  0  0  0  0
    2.4471  -12.5642    6.6962 C   0  0  0  0  0  0  0  0  0  0  0  0
    5.2684   -7.7023   10.7108 C   0  0  0  0  0  0  0  0  0  0  0  0
    3.3488  -12.1483    7.6853 C   0  0  0  0  0  0  0  0  0  0  0  0
    7.0257  -10.4434   13.9574 O   0  0  0  0  0  0  0  0  0  0  0  0
    3.7243  -13.0793   11.7888 C   0  0  0  0  0  0  0  0  0  0  0  0
    2.5766   -6.5394    9.2683 O   0  0  0  0  0  0  0  0  0  0  0  0
    5.9260   -8.5027   11.6871 O   0  0  0  0  0  0  0  0  0  0  0  0
    4.6263   -6.5325   10.8068 O   0  0  0  0  0  0  0  0  0  0  0  0
    2.4460   -9.9192    7.6305 C   0  0  0  0  0  0  0  0  0  0  0  0
    4.3770  -10.5431   12.9653 O   0  0  0  0  0  0  0  0  0  0  0  0
    0.2478   -7.3404    7.6183 O   0  0  0  0  0  0  0  0  0  0  0  0
    5.8823   -7.7385    9.3543 C   0  0  0  0  0  0  0  0  0  0  0  0
    2.7759  -12.0597   12.1692 O   0  0  0  0  0  0  0  0  0  0  0  0
  1 18  2  0
  1 20  1  0
  2  8  1  0
  3  7  2  0
  3 11  1  0
  3 23  1  0
  3 26  1  0
  4 22  1  0
  4 28  2  0
  5 16  2  0
  6 10  1  0
  6 13  1  0
  6 25  1  0
  8 24  1  0
  9 11  1  0
  9 24  1  0
 10 14  1  0
 10 31  1  0
 11 29  1  0
 12 19  2  0
 13 15  1  0
 13 28  1  0
 15 30  1  0
 16 17  1  0
 16 31  1  0
 18 28  1  0
 19 29  1  0
 19 32  1  0
 20 22  2  0
 21 26  1  0
 21 27  2  0
 21 31  1  0
 24 32  1  0
M  END
>  <ID>  (1) 
conformer_0

$$$$
