
     RDKit          3D

 21 21  0  0  0  0  0  0  0  0999 V2000
    3.3869   -7.6026    9.9218 C   0  0  0  0  0  0  0  0  0  0  0  0
    2.1053   -7.3601    9.2688 C   0  0  0  0  0  0  0  0  0  0  0  0
    3.3884  -15.3345    9.3592 C   0  0  0  0  0  0  0  0  0  0  0  0
    6.6995   -8.5710   11.5011 C   0  0  0  0  0  0  0  0  0  0  0  0
    1.1425   -8.2532    8.6766 C   0  0  0  0  0  0  0  0  0  0  0  0
    5.1700   -8.8067   11.4282 C   0  0  0  0  0  0  0  0  0  0  0  0
    3.1044  -15.4798   11.8604 C   0  0  0  0  0  0  0  0  0  0  0  0
    3.6096  -13.0877   10.4360 N   0  0  0  0  0  0  0  0  0  0  0  0
    4.2276   -6.5407   10.1709 O   0  0  0  0  0  0  0  0  0  0  0  0
    3.4261  -14.5394   10.6317 C   0  0  0  0  0  0  0  0  0  0  0  0
    3.5737  -12.4327   12.6663 O   0  0  0  0  0  0  0  0  0  0  0  0
    0.6937   -9.6167    9.4785 S   0  0  0  0  0  0  0  0  0  0  0  0
    7.2045   -8.0732   10.4191 O   0  0  0  0  0  0  0  0  0  0  0  0
    3.5675  -12.1414   11.4108 C   0  0  0  0  0  0  0  0  0  0  0  0
    4.9756  -10.2298   11.8518 N   0  0  0  0  0  0  0  0  0  0  0  0
    3.7571  -10.6489   11.0791 C   0  0  0  0  0  0  0  0  0  0  0  0
    7.4709   -8.7678   12.7139 C   0  0  0  0  0  0  0  0  0  0  0  0
    3.6149   -8.9522   10.6724 C   0  0  0  0  0  0  0  0  0  0  0  0
    0.1040   -7.7785    7.7201 C   0  0  0  0  0  0  0  0  0  0  0  0
    1.7385   -6.0224    9.2751 O   0  0  0  0  0  0  0  0  0  0  0  0
    6.7614   -8.5007   13.8910 O   0  0  0  0  0  0  0  0  0  0  0  0
  1  2  1  0
  1  9  1  0
  1 18  1  0
  2  5  1  0
  2 20  1  0
  3 10  1  0
  4  6  1  0
  4 13  1  0
  4 17  1  0
  5 12  2  0
  5 19  1  0
  6 15  1  0
  6 18  1  0
  7 10  1  0
  8 10  2  3
  8 14  1  0
 11 14  2  0
 14 16  1  0
 15 16  1  0
 16 18  1  0
 17 21  1  0
M  END
>  <ID>  (1) 
conformer_0

$$$$
