
     RDKit          3D

 24 24  0  0  0  0  0  0  0  0999 V2000
    1.5647  -11.5999    7.9662 C   0  0  0  0  0  0  0  0  0  0  0  0
    1.4073   -6.6312    8.9364 O   0  0  0  0  0  0  0  0  0  0  0  0
    4.1634  -11.3197   11.7448 N   0  0  0  0  0  0  0  0  0  0  0  0
    1.8636  -11.1613    6.4597 C   0  0  0  0  0  0  0  0  0  0  0  0
    4.3030  -12.3590   13.0121 S   0  0  0  0  0  4  0  0  0  0  0  0
    6.7942   -7.9599   12.0669 O   0  0  0  0  0  0  0  0  0  0  0  0
    1.9874  -10.4096    8.8539 C   0  0  0  0  0  0  0  0  0  0  0  0
    4.3243   -7.6100    9.9514 C   0  0  0  0  0  0  0  0  0  0  0  0
    2.9396  -10.0337    9.9756 C   0  0  0  0  0  0  0  0  0  0  0  0
    6.6920   -8.2768   10.8313 C   0  0  0  0  0  0  0  0  0  0  0  0
    1.5181   -9.1521    8.0116 C   0  0  0  0  0  0  0  0  0  0  0  0
    0.1318  -11.6616    8.0125 O   0  0  0  0  0  0  0  0  0  0  0  0
    4.4721  -11.3481   14.4069 N   0  0  0  0  0  0  0  0  0  0  0  0
    1.5131  -10.6419   12.2129 C   0  0  0  0  0  0  0  0  0  0  0  0
    5.5652  -13.1712   12.7882 O   0  0  0  0  0  1  0  0  0  0  0  0
    7.7336   -8.3120   10.0571 O   0  0  0  0  0  0  0  0  0  0  0  0
    3.0570  -13.2280   13.0587 O   0  0  0  0  0  1  0  0  0  0  0  0
    5.3854   -8.5509   10.2157 C   0  0  0  0  0  0  0  0  0  0  0  0
    1.9756   -9.6431    6.5135 C   0  0  0  0  0  0  0  0  0  0  0  0
    3.9143   -6.6952   10.6894 O   0  0  0  0  0  0  0  0  0  0  0  0
    2.9330  -10.8649   11.1623 C   0  0  0  0  0  0  0  0  0  0  0  0
    1.9454   -7.8785    8.7955 C   0  0  0  0  0  0  0  0  0  0  0  0
    2.1552  -12.3176    5.7618 O   0  0  0  0  0  0  0  0  0  0  0  0
    3.4705   -7.7739    8.7917 N   0  0  0  0  0  0  0  0  0  0  0  0
  1  4  1  0
  1  7  1  0
  1 12  1  0
  2 22  2  0
  3  5  1  0
  3 21  1  0
  4 19  1  0
  4 23  1  0
  5 13  1  0
  5 15  1  0
  5 17  1  0
  6 10  2  0
  7  9  1  0
  7 11  1  0
  8 18  1  0
  8 20  2  0
  8 24  1  0
  9 21  1  0
 10 16  1  0
 10 18  1  0
 11 19  1  0
 11 22  1  0
 14 21  1  0
 22 24  1  0
M  END
>  <ID>  (1) 
conformer_0

$$$$
