
     RDKit          3D

 25 25  0  0  0  0  0  0  0  0999 V2000
    3.0282  -13.7734    6.2207 O   0  0  0  0  0  0  0  0  0  0  0  0
    3.6608   -8.2001    9.8188 C   0  0  0  0  0  0  0  0  0  0  0  0
    0.7752  -11.2628    7.5109 C   0  0  0  0  0  0  0  0  0  0  0  0
    2.2666  -12.0546   11.5292 O   0  0  0  0  0  0  0  0  0  0  0  0
    2.3749   -7.7141    9.0967 C   0  0  0  0  0  0  0  0  0  0  0  0
    4.6724   -9.8088   13.9864 C   0  0  0  0  0  0  0  0  0  0  0  0
    1.9776   -6.4065    9.3206 O   0  0  0  0  0  0  0  0  0  0  0  0
    2.6802  -12.3707    6.0791 C   0  0  0  0  0  0  0  0  0  0  0  0
    6.4638   -8.0490    9.2787 P   0  0  0  0  0  4  0  0  0  0  0  0
    4.0243  -10.9510   14.4946 C   0  0  0  0  0  0  0  0  0  0  0  0
    4.4210  -11.3757    7.9832 O   0  0  0  0  0  0  0  0  0  0  0  0
    3.1359  -11.1481    8.3055 C   0  0  0  0  0  0  0  0  0  0  0  0
    6.4223   -6.7356    8.4394 O   0  0  0  0  0  1  0  0  0  0  0  0
    3.6098  -10.0668   11.8158 C   0  0  0  0  0  0  0  0  0  0  0  0
    4.0369   -7.0186   10.5716 O   0  0  0  0  0  0  0  0  0  0  0  0
    3.2322  -11.6908   13.5889 C   0  0  0  0  0  0  0  0  0  0  0  0
    2.0164   -8.1376    7.8801 O   0  0  0  0  0  0  0  0  0  0  0  0
    4.4503   -9.4297   12.6776 C   0  0  0  0  0  0  0  0  0  0  0  0
    3.2855   -9.5770   10.4819 C   0  0  0  0  0  0  0  0  0  0  0  0
    3.0406  -11.2381   12.2754 C   0  0  0  0  0  0  0  0  0  0  0  0
    2.6208  -10.4858    9.4847 C   0  0  0  0  0  0  0  0  0  0  0  0
    4.9512   -8.7178    9.0874 N   0  0  0  0  0  0  0  0  0  0  0  0
    6.7325   -7.8537   10.7973 O   0  0  0  0  0  0  0  0  0  0  0  0
    7.6901   -8.9029    8.7249 O   0  0  0  0  0  0  0  0  0  0  0  0
    2.1599  -11.8507    7.3729 C   0  0  0  0  0  0  0  0  0  0  0  0
  1  8  1  0
  2  5  1  0
  2 15  1  0
  2 19  1  0
  2 22  1  0
  3 25  1  0
  4 20  1  0
  5  7  2  0
  5 17  1  0
  6 10  2  0
  6 18  1  0
  8 25  1  0
  9 13  2  0
  9 22  1  0
  9 23  1  0
  9 24  1  0
 10 16  1  0
 11 12  1  0
 12 21  1  0
 12 25  1  0
 14 18  2  0
 14 19  1  0
 14 20  1  0
 16 20  2  0
 19 21  1  0
M  END
>  <ID>  (1) 
conformer_0

$$$$
