
     RDKit          3D

 28 29  0  0  0  0  0  0  0  0999 V2000
    4.4239  -12.7214   11.0063 C   0  0  0  0  0  0  0  0  0  0  0  0
    3.5022  -13.7559   12.9166 C   0  0  0  0  0  0  0  0  0  0  0  0
    4.3437  -13.8134   11.8138 C   0  0  0  0  0  0  0  0  0  0  0  0
    2.9604  -11.4603   12.3645 C   0  0  0  0  0  0  0  0  0  0  0  0
    0.8754   -8.4089    7.3244 O   0  0  0  0  0  0  0  0  0  0  0  0
    1.1283  -10.9355    7.4909 C   0  0  0  0  0  0  0  0  0  0  0  0
    3.7277  -11.5141   11.2191 C   0  0  0  0  0  0  0  0  0  0  0  0
    8.2080   -9.1230    9.7690 C   0  0  0  0  0  0  0  0  0  0  0  0
    0.1220  -11.2383    6.4726 C   0  0  0  0  0  0  0  0  0  0  0  0
    6.7162  -10.2503    7.8930 C   0  0  0  0  0  0  0  0  0  0  0  0
    2.7895  -12.5515   13.2160 C   0  0  0  0  0  0  0  0  0  0  0  0
    2.6064   -9.5074   10.3786 C   0  0  0  0  0  0  0  0  0  0  0  0
    7.9302   -9.5936   12.3166 C   0  0  0  0  0  0  0  0  0  0  0  0
    2.9439   -6.8433    9.1976 N   0  0  0  0  0  0  0  0  0  0  0  0
    2.1143   -9.1329    9.0591 C   0  0  0  0  0  0  0  0  0  0  0  0
    3.9180   -6.4460   10.1562 O   0  0  0  0  0  0  0  0  0  0  0  0
    5.6750  -11.0531    8.8028 C   0  0  0  0  0  0  0  0  0  0  0  0
    4.4385   -8.7082    8.6200 C   0  0  0  0  0  0  0  0  0  0  0  0
    1.2522   -9.5979    7.9348 C   0  0  0  0  0  0  0  0  0  0  0  0
    7.3688   -8.9387    8.4512 C   0  0  0  0  0  0  0  0  0  0  0  0
    3.0899   -8.0770    8.5066 C   0  0  0  0  0  0  0  0  0  0  0  0
    2.1064  -11.8166    7.6597 O   0  0  0  0  0  0  0  0  0  0  0  0
    2.3536   -8.8822   11.4394 O   0  0  0  0  0  0  0  0  0  0  0  0
    3.6742  -10.4352   10.3029 N   0  0  0  0  0  0  0  0  0  0  0  0
    7.8554  -10.0415   10.9137 C   0  0  0  0  0  0  0  0  0  0  0  0
    7.0131   -8.5084   12.7502 C   0  0  0  0  0  0  0  0  0  0  0  0
    4.4026  -10.2100    9.0051 C   0  0  0  0  0  0  0  0  0  0  0  0
    8.2969  -11.5498   10.7837 C   0  0  0  0  0  0  0  0  0  0  0  0
  1  3  2  0
  1  7  1  0
  2  3  1  0
  2 11  2  0
  4  7  2  0
  4 11  1  0
  5 19  1  0
  6  9  1  0
  6 19  1  0
  6 22  1  0
  7 24  1  0
  8 20  1  0
  8 25  1  0
 10 17  1  0
 10 20  1  0
 12 15  1  0
 12 23  2  0
 12 24  1  0
 13 25  1  0
 13 26  1  0
 14 16  1  0
 14 21  1  0
 15 19  1  0
 15 21  1  0
 17 27  1  0
 18 21  1  0
 18 27  1  0
 24 27  1  0
 25 28  1  0
M  END
>  <ID>  (1) 
conformer_0

$$$$
