
     RDKit          3D

 29 30  0  0  0  0  0  0  0  0999 V2000
    7.6185   -8.9488   13.7779 C   0  0  0  0  0  0  0  0  0  0  0  0
    1.5905  -11.8728    6.5723 C   0  0  0  0  0  0  0  0  0  0  0  0
    4.0620   -7.8034    9.5322 C   0  0  0  0  0  0  0  0  0  0  0  0
    1.3925   -9.9176    8.0691 C   0  0  0  0  0  0  0  0  0  0  0  0
    2.7292  -12.5384    5.8520 C   0  0  0  0  0  0  0  0  0  0  0  0
    5.3565   -8.1735    8.8474 C   0  0  0  0  0  0  0  0  0  0  0  0
    8.0479   -7.9092    9.2571 O   0  0  0  0  0  0  0  0  0  0  0  0
    2.4444   -7.9076    9.5197 C   0  0  0  0  0  0  0  0  0  0  0  0
    6.6921   -8.2930    9.5886 C   0  0  0  0  0  0  0  0  0  0  0  0
    3.0826  -12.8937   13.3692 O   0  0  0  0  0  0  0  0  0  0  0  0
    5.1351  -11.7862   12.8242 N   0  0  0  0  0  0  0  0  0  0  0  0
    0.6458  -10.8856   10.9299 O   0  0  0  0  0  0  0  0  0  0  0  0
    3.2104  -10.6170   12.6456 C   0  0  0  0  0  0  0  0  0  0  0  0
    6.8164  -10.6489    9.1714 O   0  0  0  0  0  0  0  0  0  0  0  0
    5.4377  -10.5594   12.2083 N   0  0  0  0  0  0  0  0  0  0  0  0
    3.2217  -13.5957    6.8413 N   0  0  0  0  0  0  0  0  0  0  0  0
    1.7992   -8.3769    8.1345 C   0  0  0  0  0  0  0  0  0  0  0  0
    0.4147   -7.6718    7.8050 C   0  0  0  0  0  0  0  0  0  0  0  0
    3.7525  -11.8839   13.0269 C   0  0  0  0  0  0  0  0  0  0  0  0
    7.2057   -8.7012   12.2950 C   0  0  0  0  0  0  0  0  0  0  0  0
    1.3512   -9.9400   11.3794 C   0  0  0  0  0  0  0  0  0  0  0  0
    1.7787  -10.1278   12.8139 C   0  0  0  0  0  0  0  0  0  0  0  0
    2.0032   -8.9464   10.5887 N   0  0  0  0  0  0  0  0  0  0  0  0
    6.7252  -10.0169   11.6421 C   0  0  0  0  0  0  0  0  0  0  0  0
    4.4554   -6.8137   10.5272 O   0  0  0  0  0  0  0  0  0  0  0  0
    6.7751   -9.7422   10.1442 C   0  0  0  0  0  0  0  0  0  0  0  0
    4.2860   -9.9047   12.1684 C   0  0  0  0  0  0  0  0  0  0  0  0
    2.0503   -6.5026    9.6014 O   0  0  0  0  0  0  0  0  0  0  0  0
    1.8063  -10.4014    6.6135 C   0  0  0  0  0  0  0  0  0  0  0  0
  1 20  1  0
  2  5  1  0
  2 29  1  0
  3  6  1  0
  3  8  1  0
  3 25  1  0
  4 17  1  0
  4 29  1  0
  5 16  1  0
  6  9  1  0
  7  9  1  0
  8 17  1  0
  8 23  1  0
  8 28  1  0
  9 26  1  0
 10 19  2  0
 11 15  1  0
 11 19  1  0
 12 21  2  0
 13 19  1  0
 13 22  1  0
 13 27  1  0
 14 26  1  0
 15 24  1  0
 15 27  1  0
 17 18  1  0
 20 24  1  0
 21 22  1  0
 21 23  1  0
 24 26  1  0
M  END
>  <ID>  (1) 
conformer_0

$$$$
