
     RDKit          3D

 32 34  0  0  0  0  0  0  0  0999 V2000
    9.5443   -9.9875   10.2815 C   0  0  0  0  0  0  0  0  0  0  0  0
    5.4419  -13.7305   13.2517 C   0  0  0  0  0  0  0  0  0  0  0  0
    6.8369   -9.7148   11.8963 O   0  0  0  0  0  0  0  0  0  0  0  0
    4.7143   -6.3319    8.7771 O   0  0  0  0  0  1  0  0  0  0  0  0
    0.8705  -10.5273   11.4657 O   0  0  0  0  0  0  0  0  0  0  0  0
    0.7216   -8.9439    7.7060 C   0  0  0  0  0  0  0  0  0  0  0  0
    4.4408  -13.2352   12.4235 C   0  0  0  0  0  0  0  0  0  0  0  0
    2.8976  -10.5425   14.4509 C   0  0  0  0  0  0  0  0  0  0  0  0
    2.9974   -9.6389    7.9686 O   0  0  0  0  0  0  0  0  0  0  0  0
    1.4283   -7.9659    8.7593 C   0  0  0  0  0  0  0  0  0  0  0  0
    1.9256  -10.9347    6.1824 C   0  0  0  0  0  0  0  0  0  0  0  0
    7.0688   -9.6024   10.4880 C   0  0  0  0  0  0  0  0  0  0  0  0
    2.3778  -13.2353    5.7473 O   0  0  0  0  0  0  0  0  0  0  0  0
    2.1254   -9.7735   13.4526 C   0  0  0  0  0  0  0  0  0  0  0  0
    4.8111  -11.0580   10.2053 C   0  0  0  0  0  0  0  0  0  0  0  0
    4.0673   -7.5775    9.3727 P   0  0  0  0  0  4  0  0  0  0  0  0
    8.2009  -10.5999   10.0027 C   0  0  0  0  0  0  0  0  0  0  0  0
    2.0944  -12.3852    6.7740 C   0  0  0  0  0  0  0  0  0  0  0  0
    5.7628  -13.0504   14.4420 C   0  0  0  0  0  0  0  0  0  0  0  0
    1.6950  -10.0986    7.4410 C   0  0  0  0  0  0  0  0  0  0  0  0
    7.3654   -8.2725   10.1655 O   0  0  0  0  0  0  0  0  0  0  0  0
    3.7607  -12.0538   12.7088 C   0  0  0  0  0  0  0  0  0  0  0  0
    1.9534  -10.5222   12.1703 C   0  0  0  0  0  0  0  0  0  0  0  0
    4.9680  -11.9277   14.8245 C   0  0  0  0  0  0  0  0  0  0  0  0
    1.2207   -6.4925    8.7401 O   0  0  0  0  0  0  0  0  0  0  0  0
    2.9138   -8.2145    8.3713 C   0  0  0  0  0  0  0  0  0  0  0  0
    5.0386   -8.7508    9.2512 O   0  0  0  0  0  0  0  0  0  0  0  0
    5.7276   -9.9539    9.6942 C   0  0  0  0  0  0  0  0  0  0  0  0
    3.3109  -11.4718   10.4132 C   0  0  0  0  0  0  0  0  0  0  0  0
    3.5539   -7.2042   10.7290 O   0  0  0  0  0  0  0  0  0  0  0  0
    3.9149  -11.4868   13.9864 C   0  0  0  0  0  0  0  0  0  0  0  0
    2.9121  -11.4178   11.7943 N   0  0  0  0  0  0  0  0  0  0  0  0
  1 17  1  0
  2  7  2  0
  2 19  1  0
  3 12  1  0
  4 16  2  0
  5 23  2  0
  6 10  1  0
  6 20  1  0
  7 22  1  0
  8 14  1  0
  8 31  1  0
  9 20  1  0
  9 26  1  0
 10 25  1  0
 10 26  1  0
 11 18  1  0
 11 20  1  0
 12 17  1  0
 12 21  1  0
 12 28  1  0
 13 18  1  0
 14 23  1  0
 15 28  1  0
 15 29  1  0
 16 26  1  0
 16 27  1  0
 16 30  1  0
 19 24  1  0
 22 31  1  0
 22 32  1  0
 23 32  1  0
 24 31  2  0
 27 28  1  0
 29 32  1  0
M  END
>  <ID>  (1) 
conformer_0

$$$$
