
     RDKit          3D

 27 27  0  0  0  0  0  0  0  0999 V2000
    3.2673  -14.7132    9.7577 C   0  0  0  0  0  0  0  0  0  0  0  0
    3.3877   -8.6309   10.1105 C   0  0  0  0  0  0  0  0  0  0  0  0
    2.2500   -8.6642    7.9075 C   0  0  0  0  0  0  0  0  0  0  0  0
    0.3644   -7.0348    7.8037 O   0  0  0  0  0  0  0  0  0  0  0  0
    4.6397  -12.7300    9.3199 C   0  0  0  0  0  0  0  0  0  0  0  0
    3.1446   -6.3753   10.9551 O   0  0  0  0  0  1  0  0  0  0  0  0
    4.1410  -12.0683   10.4402 C   0  0  0  0  0  0  0  0  0  0  0  0
    3.0457  -12.6980   11.0818 C   0  0  0  0  0  0  0  0  0  0  0  0
    7.9791   -8.8400   14.1126 O   0  0  0  0  0  0  0  0  0  0  0  0
    4.7434  -10.7456   10.8969 C   0  0  0  0  0  0  0  0  0  0  0  0
    8.5959   -8.7489   12.0236 O   0  0  0  0  0  0  0  0  0  0  0  0
    0.9846   -9.3658    7.3725 C   0  0  0  0  0  0  0  0  0  0  0  0
   -0.1175   -8.4283    7.8977 C   0  0  0  0  0  0  0  0  0  0  0  0
    3.7353   -9.6676   10.9872 N   0  0  0  0  0  0  0  0  0  0  0  0
    4.2046  -14.0223    8.9736 C   0  0  0  0  0  0  0  0  0  0  0  0
    2.2661  -11.9652   11.9912 O   0  0  0  0  0  0  0  0  0  0  0  0
    4.1165   -7.1280   10.1645 P   0  0  0  0  0  4  0  0  0  0  0  0
    7.8997   -9.2454   12.9025 C   0  0  0  0  0  0  0  0  0  0  0  0
    4.2339   -6.4223    8.8482 O   0  0  0  0  0  0  0  0  0  0  0  0
    2.6695  -14.0304   10.8313 C   0  0  0  0  0  0  0  0  0  0  0  0
    1.2068   -9.5758    9.8950 O   0  0  0  0  0  0  0  0  0  0  0  0
    5.8852  -10.4634   11.8830 C   0  0  0  0  0  0  0  0  0  0  0  0
    5.4454   -7.3002   10.7308 O   0  0  0  0  0  0  0  0  0  0  0  0
    2.0013   -8.5517    9.4428 C   0  0  0  0  0  0  0  0  0  0  0  0
    7.1608  -10.4761   12.6677 C   0  0  0  0  0  0  0  0  0  0  0  0
    3.4243   -9.3722    7.6349 O   0  0  0  0  0  0  0  0  0  0  0  0
    1.2908  -10.0863    6.2423 O   0  0  0  0  0  0  0  0  0  0  0  0
  1 15  1  0
  1 20  2  0
  2 14  1  0
  2 17  1  0
  2 24  1  0
  3 12  1  0
  3 24  1  0
  3 26  1  0
  4 13  1  0
  5  7  2  0
  5 15  1  0
  6 17  2  0
  7  8  1  0
  7 10  1  0
  8 16  1  0
  8 20  1  0
  9 18  2  0
 10 14  1  0
 10 22  2  0
 11 18  1  0
 12 13  1  0
 12 27  1  0
 17 19  1  0
 17 23  1  0
 18 25  1  0
 21 24  1  0
 22 25  2  0
M  END
>  <ID>  (1) 
conformer_0

$$$$
