
     RDKit          3D

 13 16  0  0  0  0  0  0  0  0999 V2000
   64.0206   53.2544  110.1790 C   0  0  0  0  0  0  0  0  0  0  0  0
   61.7467   50.5119  108.9289 C   0  0  0  0  0  0  0  0  0  0  0  0
   62.5698   51.0526  110.8137 C   0  0  0  0  0  0  0  0  0  0  0  0
   63.8872   54.6735  111.2115 C   0  0  0  0  0  0  0  0  0  0  0  0
   63.9903   56.7811  109.2146 O   0  0  0  0  0  0  0  0  0  0  0  0
   62.3369   53.3605  108.3096 O   0  0  0  0  0  0  0  0  0  0  0  0
   62.9651   52.1662  110.0748 N   0  0  0  0  0  0  0  0  0  0  0  0
   63.5574   50.2116  111.1717 C   0  0  0  0  0  0  0  0  0  0  0  0
   64.3165   54.7263  109.4003 C   0  0  0  0  0  0  0  0  0  0  0  0
   65.3346   54.4737  109.5571 N   0  0  0  0  0  0  0  0  0  0  0  0
   63.9300   56.1381  110.5663 C   0  0  0  0  0  0  0  0  0  0  0  0
   62.4405   52.1329  109.2125 C   0  0  0  0  0  0  0  0  0  0  0  0
   62.0602   49.7184  110.5351 C   0  0  0  0  0  0  0  0  0  0  0  0
  4  1  1  0
  7  1  1  0
  7  3  1  0
  8  3  1  0
  9  1  1  0
  9  4  1  0
 10  9  1  0
 11  4  1  0
 11  5  1  0
 11  9  1  0
 12  2  1  0
 12  6  2  0
 12  7  1  0
 13  2  1  0
 13  3  1  0
 13  8  1  0
M  END
>  <ID>  (1) 
conformer_0

$$$$
