
     RDKit          3D

 11 12  0  0  0  0  0  0  0  0999 V2000
   62.1415   49.7700  109.9738 C   0  0  0  0  0  0  0  0  0  0  0  0
   63.6465   55.7716  110.0037 C   0  0  0  0  0  0  0  0  0  0  0  0
   63.9948   55.6828  111.4129 C   0  0  0  0  0  0  0  0  0  0  0  0
   65.2625   54.9381  109.4284 N   0  0  0  0  0  0  0  0  0  0  0  0
   62.3011   52.1241  108.8735 C   0  0  0  0  0  0  0  0  0  0  0  0
   61.6606   50.4149  108.7019 C   0  0  0  0  0  0  0  0  0  0  0  0
   62.9682   52.4926  109.7423 N   0  0  0  0  0  0  0  0  0  0  0  0
   62.4051   56.2248  110.0004 N   0  0  0  0  0  0  0  0  0  0  0  0
   63.1640   51.5348  110.6273 C   0  0  0  0  0  0  0  0  0  0  0  0
   63.7805   54.0844  109.5230 C   0  0  0  0  0  0  0  0  0  0  0  0
   63.3556   50.1027  110.8578 C   0  0  0  0  0  0  0  0  0  0  0  0
  3  2  1  0
  4  2  1  0
  6  1  1  0
  6  5  1  0
  7  5  1  0
  8  2  1  0
  9  7  1  0
 10  2  1  0
 10  4  1  0
 10  7  1  0
 11  1  1  0
 11  9  1  0
M  END
>  <ID>  (1) 
conformer_0

$$$$
