
     RDKit          3D

 10 10  0  0  0  0  0  0  0  0999 V2000
   63.0537   49.8987  110.7049 C   0  0  0  0  0  0  0  0  0  0  0  0
   63.5861   53.9524  109.3744 C   0  0  0  0  0  0  0  0  0  0  0  0
   64.1629   55.3655  111.2359 C   0  0  0  0  0  0  0  0  0  0  0  0
   63.5495   51.4516  110.5951 C   0  0  0  0  0  0  0  0  0  0  0  0
   65.0670   54.9286  109.3792 N   0  0  0  0  0  0  0  0  0  0  0  0
   61.9253   53.6674  108.9024 O   0  0  0  0  0  0  0  0  0  0  0  0
   62.8441   52.1626  109.9392 N   0  0  0  0  0  0  0  0  0  0  0  0
   62.0151   50.0402  109.4895 C   0  0  0  0  0  0  0  0  0  0  0  0
   63.5334   55.4489  109.8894 C   0  0  0  0  0  0  0  0  0  0  0  0
   62.0422   52.0511  109.3941 C   0  0  0  0  0  0  0  0  0  0  0  0
  4  1  1  0
  5  2  1  0
  6  2  1  0
  7  4  1  0
  8  1  1  0
  9  2  1  0
  9  3  1  0
  9  5  1  0
 10  6  1  0
 10  7  1  0
M  END
>  <ID>  (1) 
conformer_0

$$$$
