
     RDKit          3D

 11 13  0  0  0  0  0  0  0  0999 V2000
   61.7240   50.2564  109.3704 C   0  0  0  0  0  0  0  0  0  0  0  0
   64.4496   54.8673  109.4682 C   0  0  0  0  0  0  0  0  0  0  0  0
   63.3910   52.9040  109.6675 C   0  0  0  0  0  0  0  0  0  0  0  0
   62.7375   56.5626  109.9197 N   0  0  0  0  0  0  0  0  0  0  0  0
   64.3486   55.3938  111.1846 C   0  0  0  0  0  0  0  0  0  0  0  0
   63.0002   52.1045  110.0462 N   0  0  0  0  0  0  0  0  0  0  0  0
   62.2377   49.5072  110.5957 C   0  0  0  0  0  0  0  0  0  0  0  0
   65.2890   54.6563  109.3527 N   0  0  0  0  0  0  0  0  0  0  0  0
   63.2320   55.7776  109.7154 C   0  0  0  0  0  0  0  0  0  0  0  0
   62.4681   51.3015  110.2370 C   0  0  0  0  0  0  0  0  0  0  0  0
   63.5879   50.1002  111.1225 C   0  0  0  0  0  0  0  0  0  0  0  0
  3  2  1  0
  5  2  1  0
  6  3  1  0
  7  1  1  0
  8  2  1  0
  9  2  1  0
  9  4  1  0
  9  5  1  0
 10  1  1  0
 10  6  1  0
 10  7  1  0
 11  7  1  0
 11 10  1  0
M  END
>  <ID>  (1) 
conformer_0

$$$$
