
     RDKit          3D

 11 13  0  0  0  0  0  0  0  0999 V2000
   63.6301   50.4771  111.0318 C   0  0  0  0  0  0  0  0  0  0  0  0
   63.0265   52.9778  109.3892 C   0  0  0  0  0  0  0  0  0  0  0  0
   62.4040   51.4175  110.3399 C   0  0  0  0  0  0  0  0  0  0  0  0
   61.7171   50.3759  109.0328 C   0  0  0  0  0  0  0  0  0  0  0  0
   64.3077   55.1759  110.8687 C   0  0  0  0  0  0  0  0  0  0  0  0
   62.5420   53.9193  108.6361 O   0  0  0  0  0  0  0  0  0  0  0  0
   62.9783   52.4457  109.9112 N   0  0  0  0  0  0  0  0  0  0  0  0
   64.3130   54.4069  109.2662 C   0  0  0  0  0  0  0  0  0  0  0  0
   64.6174   55.4467  109.0918 N   0  0  0  0  0  0  0  0  0  0  0  0
   62.4773   49.7088  110.5262 C   0  0  0  0  0  0  0  0  0  0  0  0
   63.8768   55.9827  110.5241 C   0  0  0  0  0  0  0  0  0  0  0  0
  3  1  1  0
  4  3  1  0
  6  2  2  0
  7  2  1  0
  7  3  1  0
  8  2  1  0
  8  5  1  0
  9  8  1  0
 10  1  1  0
 10  3  1  0
 10  4  1  0
 11  5  1  0
 11  9  1  0
M  END
>  <ID>  (1) 
conformer_0

$$$$
