
     RDKit          3D

 12 12  0  0  0  0  0  0  0  0999 V2000
   63.4865   50.6365  110.9709 C   0  0  0  0  0  0  0  0  0  0  0  0
   63.3255   56.0241  109.9577 C   0  0  0  0  0  0  0  0  0  0  0  0
   65.4228   54.7674  109.4991 N   0  0  0  0  0  0  0  0  0  0  0  0
   62.0477   51.5373  109.5079 C   0  0  0  0  0  0  0  0  0  0  0  0
   62.5775   49.6382  110.9750 C   0  0  0  0  0  0  0  0  0  0  0  0
   62.1516   53.5022  108.3795 O   0  0  0  0  0  0  0  0  0  0  0  0
   63.9591   55.7395  110.8577 C   0  0  0  0  0  0  0  0  0  0  0  0
   62.6360   52.4505  109.7830 N   0  0  0  0  0  0  0  0  0  0  0  0
   64.6320   54.5184  109.8376 C   0  0  0  0  0  0  0  0  0  0  0  0
   61.7730   50.1675  109.6418 C   0  0  0  0  0  0  0  0  0  0  0  0
   62.6730   53.8527  109.2403 C   0  0  0  0  0  0  0  0  0  0  0  0
   63.5225   52.1242  110.6698 C   0  0  0  0  0  0  0  0  0  0  0  0
  5  1  1  0
  7  2  1  0
  8  4  1  0
  9  3  1  0
  9  7  1  0
 10  4  1  0
 10  5  1  0
 11  6  1  0
 11  8  1  0
 11  9  1  0
 12  1  1  0
 12  8  1  0
M  END
>  <ID>  (1) 
conformer_0

$$$$
