
     RDKit          3D

  9  8  0  0  0  0  0  0  0  0999 V2000
   63.1089   50.1604  110.8231 C   0  0  0  0  0  0  0  0  0  0  0  0
   63.6307   53.5660  109.5872 C   0  0  2  0  0  0  0  0  0  0  0  0
   64.2518   55.4787  111.2983 C   0  0  0  0  0  0  0  0  0  0  0  0
   62.6646   51.6503  109.8328 C   0  0  0  0  0  0  0  0  0  0  0  0
   61.6517   50.1454  109.3564 C   0  0  0  0  0  0  0  0  0  0  0  0
   62.2552   53.6039  108.5014 O   0  0  0  0  0  0  0  0  0  0  0  0
   63.1535   52.5174  109.8559 N   0  0  0  0  0  0  0  0  0  0  0  0
   63.8257   55.4809  110.1662 C   0  0  0  0  0  0  0  0  0  0  0  0
   63.8282   56.0913  109.6901 N   0  0  0  0  0  0  0  0  0  0  0  0
  4  1  1  0
  5  4  1  0
  2  6  1  6
  7  2  1  0
  7  4  1  0
  8  2  1  0
  8  3  2  3
  9  8  1  0
M  END
>  <ID>  (1) 
conformer_0

$$$$
