
     RDKit          3D

  8  7  0  0  0  0  0  0  0  0999 V2000
   63.0974   50.0490  110.9295 C   0  0  0  0  0  0  0  0  0  0  0  0
   63.6874   53.6699  109.7257 C   0  0  0  0  0  0  0  0  0  0  0  0
   62.6190   51.7682  109.7372 C   0  0  0  0  0  0  0  0  0  0  0  0
   64.2506   55.7122  111.2831 C   0  0  0  0  0  0  0  0  0  0  0  0
   65.3668   54.7892  109.4252 N   0  0  0  0  0  0  0  0  0  0  0  0
   62.0233   50.1266  109.5523 C   0  0  0  0  0  0  0  0  0  0  0  0
   63.0214   52.5731  109.8770 N   0  0  0  0  0  0  0  0  0  0  0  0
   63.7430   55.4466  110.0162 C   0  0  0  0  0  0  0  0  0  0  0  0
  6  1  1  0
  6  3  1  0
  7  2  1  0
  7  3  1  0
  8  2  1  0
  8  4  1  0
  8  5  1  0
M  END
>  <ID>  (1) 
conformer_0

$$$$
