
     RDKit          3D

 13 13  0  0  0  0  0  0  0  0999 V2000
   64.1964   54.7753  109.8482 C   0  0  0  0  0  0  0  0  0  0  0  0
   62.2350   49.7118  110.6397 C   0  0  0  0  0  0  0  0  0  0  0  0
   63.3332   51.7613  110.9358 C   0  0  0  0  0  0  0  0  0  0  0  0
   61.6474   50.1688  109.0284 C   0  0  0  0  0  0  0  0  0  0  0  0
   63.2291   56.1829  109.9862 C   0  0  0  0  0  0  0  0  0  0  0  0
   63.9293   57.1110  109.4956 O   0  0  0  0  0  0  0  0  0  0  0  0
   62.8803   52.0193  109.9818 N   0  0  0  0  0  0  0  0  0  0  0  0
   63.8914   54.8118  108.3064 O   0  0  0  0  0  0  0  0  0  0  0  0
   64.0073   55.5545  110.8924 C   0  0  0  0  0  0  0  0  0  0  0  0
   64.9259   54.0713  109.7986 N   0  0  0  0  0  0  0  0  0  0  0  0
   63.7238   53.3483  109.5195 C   0  0  0  0  0  0  0  0  0  0  0  0
   62.1549   51.3084  109.5000 C   0  0  0  0  0  0  0  0  0  0  0  0
   63.6996   50.2550  111.1605 C   0  0  0  0  0  0  0  0  0  0  0  0
  4  2  1  0
  6  5  1  0
  7  3  1  0
  8  1  2  0
  9  1  1  0
  9  5  1  0
 10  1  1  0
 11  7  1  0
 11 10  1  0
 12  4  1  0
 12  7  1  0
 13  2  1  0
 13  3  1  0
M  END
>  <ID>  (1) 
conformer_0

$$$$
