
     RDKit          3D

 10 10  0  0  0  0  0  0  0  0999 V2000
   63.2152   50.1108  110.8820 C   0  0  0  0  0  0  0  0  0  0  0  0
   63.5097   53.0797  109.9570 C   0  0  0  0  0  0  0  0  0  0  0  0
   62.3009   51.5068  110.2057 C   0  0  0  0  0  0  0  0  0  0  0  0
   62.6157   56.4092  110.6949 N   0  0  0  0  0  0  0  0  0  0  0  0
   64.4274   55.0164  110.4731 C   0  0  0  0  0  0  0  0  0  0  0  0
   62.5230   53.1103  108.2394 O   0  0  0  0  0  0  0  0  0  0  0  0
   63.4930   55.8795  110.5390 C   0  0  0  0  0  0  0  0  0  0  0  0
   62.1040   49.9783  110.0560 C   0  0  0  0  0  0  0  0  0  0  0  0
   63.0453   52.6272  110.0571 N   0  0  0  0  0  0  0  0  0  0  0  0
   64.2917   54.3130  108.9218 C   0  0  0  0  0  0  0  0  0  0  0  0
  3  1  1  0
  6  2  1  0
  7  4  1  0
  7  5  1  0
  8  1  1  0
  8  3  1  0
  9  2  1  0
  9  3  1  0
 10  2  1  0
 10  5  1  0
M  END
>  <ID>  (1) 
conformer_0

$$$$
