
     RDKit          3D

  9  8  0  0  0  0  0  0  0  0999 V2000
   63.9436   55.3918  110.0440 C   0  0  0  0  0  0  0  0  0  0  0  0
   61.6459   50.0843  109.5440 C   0  0  0  0  0  0  0  0  0  0  0  0
   62.1809   51.4102  109.5631 C   0  0  0  0  0  0  0  0  0  0  0  0
   62.8328   52.0898  109.9428 N   0  0  0  0  0  0  0  0  0  0  0  0
   64.3866   55.6796  109.4687 N   0  0  0  0  0  0  0  0  0  0  0  0
   63.5596   54.1593  109.1170 C   0  0  0  0  0  0  0  0  0  0  0  0
   64.1352   54.8806  111.1875 C   0  0  0  0  0  0  0  0  0  0  0  0
   62.9213   49.9303  110.9659 C   0  0  0  0  0  0  0  0  0  0  0  0
   63.5656   52.5221  110.3844 C   0  0  0  0  0  0  0  0  0  0  0  0
  3  2  1  0
  4  3  1  0
  5  1  1  0
  6  1  1  0
  7  1  1  0
  8  2  1  0
  9  4  1  0
  9  6  1  0
M  END
>  <ID>  (1) 
conformer_0

$$$$
