
     RDKit          3D

 11 10  0  0  0  0  0  0  0  0999 V2000
   63.6628   50.6632  110.9287 C   0  0  0  0  0  0  0  0  0  0  0  0
   63.9776   54.0325  109.2573 C   0  0  0  0  0  0  0  0  0  0  0  0
   62.3246   51.7382  108.9923 C   0  0  2  0  0  0  0  0  0  0  0  0
   64.1421   56.3002  111.3191 C   0  0  0  0  0  0  0  0  0  0  0  0
   61.7645   50.0801  109.0779 C   0  0  0  0  0  0  0  0  0  0  0  0
   63.0442   52.2682  109.7082 N   0  0  0  0  0  0  0  0  0  0  0  0
   62.3751   53.1180  108.3550 O   0  0  0  0  0  0  0  0  0  0  0  0
   63.7375   55.8010  110.1669 C   0  0  0  0  0  0  0  0  0  0  0  0
   63.3760   52.0012  110.6307 C   0  0  0  0  0  0  0  0  0  0  0  0
   62.9000   55.9021  109.9625 N   0  0  0  0  0  0  0  0  0  0  0  0
   62.4698   49.6954  110.5665 C   0  0  0  0  0  0  0  0  0  0  0  0
  3  2  1  0
  5  3  1  0
  3  7  1  6
  8  2  1  0
  8  4  2  3
  9  1  1  0
  9  6  2  3
 10  8  1  0
 11  1  1  0
 11  5  1  0
M  END
>  <ID>  (1) 
conformer_0

$$$$
