
     RDKit          3D

 11 10  0  0  0  0  0  0  0  0999 V2000
   62.3991   49.8636  110.3595 C   0  0  0  0  0  0  0  0  0  0  0  0
   63.7779   55.3839  110.2802 C   0  0  0  0  0  0  0  0  0  0  0  0
   64.3457   55.7748  111.0993 C   0  0  0  0  0  0  0  0  0  0  0  0
   63.0990   52.0865  110.5733 C   0  0  0  0  0  0  0  0  0  0  0  0
   63.5301   50.5346  110.9084 C   0  0  0  0  0  0  0  0  0  0  0  0
   63.0498   52.6738  109.7073 N   0  0  0  0  0  0  0  0  0  0  0  0
   62.9405   56.6808  109.5454 O   0  0  0  0  0  0  0  0  0  0  0  0
   63.9560   54.2780  109.0365 C   0  0  0  0  0  0  0  0  0  0  0  0
   61.9177   53.8424  108.5557 O   0  0  0  0  0  0  0  0  0  0  0  0
   61.7813   50.3294  109.1898 C   0  0  0  0  0  0  0  0  0  0  0  0
   62.3155   52.3111  108.8499 C   0  0  0  0  0  0  0  0  0  0  0  0
  3  2  2  3
  5  1  1  0
  5  4  1  0
  6  4  1  0
  7  2  1  0
  8  2  1  0
  8  6  1  0
 10  1  1  0
 11  6  1  0
 11  9  1  0
M  END
>  <ID>  (1) 
conformer_0

$$$$
