
     RDKit          3D

 14 14  0  0  0  0  0  0  0  0999 V2000
   62.6989   49.4380  110.8878 C   0  0  0  0  0  0  0  0  0  0  0  0
   64.5505   54.4322  110.0409 C   0  0  0  0  0  0  0  0  0  0  0  0
   63.1749   51.9610  110.6545 C   0  0  0  0  0  0  0  0  0  0  0  0
   62.2487   53.4688  108.2024 O   0  0  0  0  0  0  0  0  0  0  0  0
   62.9025   52.5561  109.8719 N   0  0  0  0  0  0  0  0  0  0  0  0
   63.5598   50.4509  110.9212 C   0  0  0  0  0  0  0  0  0  0  0  0
   64.3244   55.3116  110.9381 C   0  0  0  0  0  0  0  0  0  0  0  0
   63.5807   56.3095  110.5017 C   0  0  0  0  0  0  0  0  0  0  0  0
   63.3934   56.6566  109.1831 O   0  0  0  0  0  0  0  0  0  0  0  0
   65.3067   54.3103  109.4647 N   0  0  0  0  0  0  0  0  0  0  0  0
   62.7750   56.7376  110.5483 N   0  0  0  0  0  0  0  0  0  0  0  0
   63.2184   53.9647  109.2551 C   0  0  0  0  0  0  0  0  0  0  0  0
   61.8916   51.7721  109.2276 C   0  0  0  0  0  0  0  0  0  0  0  0
   61.9179   50.3064  109.5895 C   0  0  0  0  0  0  0  0  0  0  0  0
  5  3  1  0
  6  1  1  0
  6  3  1  0
  7  2  1  0
  8  7  1  0
  9  8  1  0
 10  2  1  0
 11  8  1  0
 12  2  1  0
 12  4  2  0
 12  5  1  0
 13  5  1  0
 14  1  1  0
 14 13  1  0
M  END
>  <ID>  (1) 
conformer_0

$$$$
