
     RDKit          3D

 11 12  0  0  0  0  0  0  0  0999 V2000
   62.9875   49.8275  110.9486 C   0  0  0  0  0  0  0  0  0  0  0  0
   64.4469   54.5362  109.6205 C   0  0  0  0  0  0  0  0  0  0  0  0
   63.3162   51.5885  110.8484 C   0  0  0  0  0  0  0  0  0  0  0  0
   64.2462   55.2806  110.8523 C   0  0  0  0  0  0  0  0  0  0  0  0
   63.0137   52.3094  109.8305 N   0  0  0  0  0  0  0  0  0  0  0  0
   61.9045   50.0481  109.8215 C   0  0  0  0  0  0  0  0  0  0  0  0
   62.9526   53.4952  108.3562 O   0  0  0  0  0  0  0  0  0  0  0  0
   62.7762   56.1707  109.9346 N   0  0  0  0  0  0  0  0  0  0  0  0
   63.2684   56.0404  110.0744 C   0  0  0  0  0  0  0  0  0  0  0  0
   63.1824   53.4661  109.1443 C   0  0  0  0  0  0  0  0  0  0  0  0
   62.0523   51.4920  109.4076 C   0  0  0  0  0  0  0  0  0  0  0  0
  3  1  1  0
  4  2  1  0
  5  3  1  0
  6  1  1  0
  9  2  1  0
  9  4  1  0
  9  8  1  0
 10  2  1  0
 10  5  1  0
 10  7  2  0
 11  5  1  0
 11  6  1  0
M  END
>  <ID>  (1) 
conformer_0

$$$$
