
     RDKit          3D

 11 11  0  0  0  0  0  0  0  0999 V2000
   63.2245   49.9099  110.8308 C   0  0  0  0  0  0  0  0  0  0  0  0
   64.0857   55.7229  110.0832 C   0  0  0  0  0  0  0  0  0  0  0  0
   63.9425   55.6403  111.0919 C   0  0  0  0  0  0  0  0  0  0  0  0
   62.0034   51.9619  109.1538 C   0  0  0  0  0  0  0  0  0  0  0  0
   65.4034   54.6410  109.5068 N   0  0  0  0  0  0  0  0  0  0  0  0
   62.6077   52.2198  109.9789 N   0  0  0  0  0  0  0  0  0  0  0  0
   61.9016   49.9154  109.7661 C   0  0  0  0  0  0  0  0  0  0  0  0
   64.1931   54.1666  108.6799 C   0  0  0  0  0  0  0  0  0  0  0  0
   62.2064   53.4869  108.6812 O   0  0  0  0  0  0  0  0  0  0  0  0
   63.6293   53.3452  110.0583 C   0  0  0  0  0  0  0  0  0  0  0  0
   62.5157   51.2643  110.8918 C   0  0  0  0  0  0  0  0  0  0  0  0
  3  2  1  0
  5  2  1  0
  6  4  1  0
  7  1  1  0
  8  5  1  0
  9  4  1  0
 10  6  1  0
 10  8  1  0
 11  1  1  0
 11  6  1  0
 11  7  1  0
M  END
>  <ID>  (1) 
conformer_0

$$$$
