
     RDKit          3D

  9  8  0  0  0  0  0  0  0  0999 V2000
   63.1387   50.2720  110.7578 C   0  0  0  0  0  0  0  0  0  0  0  0
   63.9208   54.2346  109.5595 C   0  0  0  0  0  0  0  0  0  0  0  0
   62.7389   51.6915  110.6194 C   0  0  0  0  0  0  0  0  0  0  0  0
   64.1159   56.3358  111.6022 C   0  0  0  0  0  0  0  0  0  0  0  0
   63.1005   53.5950  108.3125 O   0  0  0  0  0  0  0  0  0  0  0  0
   61.9813   50.0573  109.7824 C   0  0  0  0  0  0  0  0  0  0  0  0
   63.3353   55.8865  109.6148 N   0  0  0  0  0  0  0  0  0  0  0  0
   63.7650   55.8036  110.3191 C   0  0  0  0  0  0  0  0  0  0  0  0
   62.5692   52.4942  108.9536 C   0  0  0  0  0  0  0  0  0  0  0  0
  3  1  1  0
  5  2  1  0
  6  1  1  0
  8  2  1  0
  8  4  1  0
  8  7  1  0
  9  3  1  0
  9  5  1  0
M  END
>  <ID>  (1) 
conformer_0

$$$$
