
     RDKit          3D

  9  9  0  0  0  0  0  0  0  0999 V2000
   62.1564   50.1419  109.9590 C   0  0  0  0  0  0  0  0  0  0  0  0
   62.6255   51.9719  109.9937 C   0  0  0  0  0  0  0  0  0  0  0  0
   63.7500   53.7260  109.4446 C   0  0  0  0  0  0  0  0  0  0  0  0
   62.6779   53.4861  108.3176 O   0  0  0  0  0  0  0  0  0  0  0  0
   63.8452   54.6862  110.8006 C   0  0  0  0  0  0  0  0  0  0  0  0
   62.8579   52.4476  109.8979 N   0  0  0  0  0  0  0  0  0  0  0  0
   63.0139   49.9799  110.8847 C   0  0  0  0  0  0  0  0  0  0  0  0
   64.0142   55.6199  110.0977 C   0  0  0  0  0  0  0  0  0  0  0  0
   64.9568   55.0294  109.2995 N   0  0  0  0  0  0  0  0  0  0  0  0
  2  1  1  0
  4  3  1  0
  5  3  1  0
  6  2  1  0
  6  3  1  0
  7  1  1  0
  8  5  1  0
  9  3  1  0
  9  8  1  0
M  END
>  <ID>  (1) 
conformer_0

$$$$
