
     RDKit          3D

 10 10  0  0  0  0  0  0  0  0999 V2000
   64.1077   53.8138  109.5351 C   0  0  0  0  0  0  0  0  0  0  0  0
   62.9868   49.8330  111.1026 C   0  0  0  0  0  0  0  0  0  0  0  0
   62.3749   52.3318  108.8762 C   0  0  0  0  0  0  0  0  0  0  0  0
   62.9533   52.2484  109.9054 N   0  0  0  0  0  0  0  0  0  0  0  0
   64.9401   55.0303  109.4357 N   0  0  0  0  0  0  0  0  0  0  0  0
   63.9695   55.8527  111.1368 C   0  0  0  0  0  0  0  0  0  0  0  0
   63.9259   55.5674  109.9554 C   0  0  0  0  0  0  0  0  0  0  0  0
   62.0363   50.1727  109.5206 C   0  0  0  0  0  0  0  0  0  0  0  0
   62.7888   53.6137  108.3938 O   0  0  0  0  0  0  0  0  0  0  0  0
   62.9998   51.3818  110.6400 C   0  0  0  0  0  0  0  0  0  0  0  0
  4  3  1  0
  5  1  1  0
  7  5  1  0
  7  6  2  3
  8  2  1  0
  9  1  1  0
  9  3  1  0
 10  2  1  0
 10  4  1  0
 10  8  1  0
M  END
>  <ID>  (1) 
conformer_0

$$$$
