
     RDKit          3D

 13 12  0  0  0  0  0  0  0  0999 V2000
   62.6817   49.6317  111.0355 C   0  0  0  0  0  0  0  0  0  0  0  0
   64.6967   54.6547  109.8809 C   0  0  1  0  0  0  0  0  0  0  0  0
   62.1627   51.5136  108.9806 C   0  0  0  0  0  0  0  0  0  0  0  0
   65.3981   54.9757  109.0771 N   0  0  0  0  0  0  0  0  0  0  0  0
   62.2822   56.3369  110.2317 N   0  0  0  0  0  0  0  0  0  0  0  0
   63.4008   50.4003  111.0966 C   0  0  0  0  0  0  0  0  0  0  0  0
   63.0244   52.3857  109.7634 N   0  0  0  0  0  0  0  0  0  0  0  0
   62.3194   53.2882  108.1676 O   0  0  0  0  0  0  0  0  0  0  0  0
   64.1230   55.6654  111.0711 C   0  0  0  0  0  0  0  0  0  0  0  0
   63.2545   56.2425  110.5155 C   0  0  0  0  0  0  0  0  0  0  0  0
   61.8142   50.3021  109.3282 C   0  0  0  0  0  0  0  0  0  0  0  0
   63.1987   51.7944  110.6110 C   0  0  0  0  0  0  0  0  0  0  0  0
   63.4091   53.7773  109.2042 C   0  0  0  0  0  0  0  0  0  0  0  0
  2  4  1  6
  6  1  2  3
  7  3  1  0
  9  2  1  0
 10  5  1  0
 10  9  1  0
 11  3  2  3
 12  6  1  0
 12  7  1  0
 13  2  1  0
 13  7  1  0
 13  8  2  0
M  END
>  <ID>  (1) 
conformer_0

$$$$
