
     RDKit          3D

 12 13  0  0  0  0  0  0  0  0999 V2000
   63.4301   49.9825  110.8223 C   0  0  0  0  0  0  0  0  0  0  0  0
   63.5837   55.9053  110.1416 C   0  0  0  0  0  0  0  0  0  0  0  0
   63.3185   51.5460  110.7845 C   0  0  0  0  0  0  0  0  0  0  0  0
   63.1181   56.7685  110.2102 N   0  0  0  0  0  0  0  0  0  0  0  0
   62.1428   53.3247  108.7054 O   0  0  0  0  0  0  0  0  0  0  0  0
   62.1217   49.7963  110.1698 C   0  0  0  0  0  0  0  0  0  0  0  0
   65.2136   55.2543  109.2654 N   0  0  0  0  0  0  0  0  0  0  0  0
   63.9743   54.9005  111.0405 C   0  0  0  0  0  0  0  0  0  0  0  0
   63.0973   52.2482  110.0979 N   0  0  0  0  0  0  0  0  0  0  0  0
   64.4316   54.2325  109.6631 C   0  0  0  0  0  0  0  0  0  0  0  0
   62.4393   52.1389  109.2967 C   0  0  0  0  0  0  0  0  0  0  0  0
   61.8148   50.6021  108.8090 C   0  0  0  0  0  0  0  0  0  0  0  0
  3  1  1  0
  4  2  1  0
  6  1  1  0
  8  2  1  0
  9  3  1  0
 10  2  1  0
 10  7  1  0
 10  8  1  0
 11  5  1  0
 11  9  1  0
 11 10  1  0
 12  6  1  0
 12 11  1  0
M  END
>  <ID>  (1) 
conformer_0

$$$$
