
     RDKit          3D

  9  8  0  0  0  0  0  0  0  0999 V2000
   62.8980   49.8774  110.9465 C   0  0  0  0  0  0  0  0  0  0  0  0
   62.2117   51.8428  109.1964 C   0  0  0  0  0  0  0  0  0  0  0  0
   64.1094   53.8749  109.7143 C   0  0  0  0  0  0  0  0  0  0  0  0
   63.2625   52.2026  109.8835 N   0  0  0  0  0  0  0  0  0  0  0  0
   64.1336   54.8933  110.9601 C   0  0  0  0  0  0  0  0  0  0  0  0
   63.1422   54.6134  108.6069 O   0  0  0  0  0  0  0  0  0  0  0  0
   63.5991   55.7806  110.0095 C   0  0  0  0  0  0  0  0  0  0  0  0
   61.9250   50.0705  109.8428 C   0  0  0  0  0  0  0  0  0  0  0  0
   63.6847   51.7297  110.6182 C   0  0  0  0  0  0  0  0  0  0  0  0
  4  2  1  0
  4  3  1  0
  5  3  1  0
  6  3  1  0
  7  5  1  0
  8  1  1  0
  8  2  1  0
  9  4  1  0
M  END
>  <ID>  (1) 
conformer_0

$$$$
