
     RDKit          3D

 12 13  0  0  0  0  0  0  0  0999 V2000
   63.8066   50.8781  110.9151 C   0  0  0  0  0  0  0  0  0  0  0  0
   64.1930   55.4135  109.0112 C   0  0  0  0  0  0  0  0  0  0  0  0
   63.4512   55.0988  110.4059 C   0  0  0  0  0  0  0  0  0  0  0  0
   62.7883   52.6032  109.8583 N   0  0  0  0  0  0  0  0  0  0  0  0
   62.7037   53.8284  108.1449 O   0  0  0  0  0  0  0  0  0  0  0  0
   62.7618   49.6207  110.7013 C   0  0  0  0  0  0  0  0  0  0  0  0
   64.1603   55.0040  111.0201 C   0  0  0  0  0  0  0  0  0  0  0  0
   62.1023   51.5932  109.2045 C   0  0  0  0  0  0  0  0  0  0  0  0
   63.0494   56.1978  109.9026 N   0  0  0  0  0  0  0  0  0  0  0  0
   63.5094   52.2412  110.9680 C   0  0  0  0  0  0  0  0  0  0  0  0
   61.8258   50.3115  109.2726 C   0  0  0  0  0  0  0  0  0  0  0  0
   62.8433   53.8151  109.0692 C   0  0  0  0  0  0  0  0  0  0  0  0
  3  2  1  0
  6  1  1  0
  7  3  1  0
  8  4  1  0
  9  2  1  0
  9  3  1  0
 10  1  1  0
 10  4  1  0
 11  6  1  0
 11  8  1  0
 12  3  1  0
 12  4  1  0
 12  5  2  0
M  END
>  <ID>  (1) 
conformer_0

$$$$
