
     RDKit          3D

 10  9  0  0  0  0  0  0  0  0999 V2000
   63.3673   49.9957  111.0046 C   0  0  0  0  0  0  0  0  0  0  0  0
   62.3045   52.0700  109.1976 C   0  0  0  0  0  0  0  0  0  0  0  0
   63.9972   53.9811  109.4369 C   0  0  0  0  0  0  0  0  0  0  0  0
   62.4563   56.2331  109.7303 O   0  0  0  0  0  0  0  0  0  0  0  0
   64.0705   55.2636  111.2158 C   0  0  0  0  0  0  0  0  0  0  0  0
   63.1109   52.3363  109.8954 N   0  0  0  0  0  0  0  0  0  0  0  0
   63.1476   53.5664  108.3074 O   0  0  0  0  0  0  0  0  0  0  0  0
   62.2342   50.1094  109.8893 C   0  0  0  0  0  0  0  0  0  0  0  0
   63.5183   55.6885  110.0837 C   0  0  0  0  0  0  0  0  0  0  0  0
   63.4494   51.7002  110.6610 C   0  0  0  0  0  0  0  0  0  0  0  0
  6  2  1  0
  6  3  1  0
  7  3  1  0
  8  1  1  0
  9  3  1  0
  9  4  1  0
  9  5  1  0
 10  1  1  0
 10  6  1  0
M  END
>  <ID>  (1) 
conformer_0

$$$$
