
     RDKit          3D

 11 14  0  0  0  0  0  0  0  0999 V2000
   63.0870   50.1807  111.0019 C   0  0  0  0  0  0  0  0  0  0  0  0
   64.1424   54.1389  108.4662 C   0  0  0  0  0  0  0  0  0  0  0  0
   64.0436   55.4277  111.0810 C   0  0  0  0  0  0  0  0  0  0  0  0
   64.1150   53.6894  110.3006 C   0  0  0  0  0  0  0  0  0  0  0  0
   63.2408   52.7834  109.9433 N   0  0  0  0  0  0  0  0  0  0  0  0
   62.6779   53.6451  108.2700 O   0  0  0  0  0  0  0  0  0  0  0  0
   62.1216   50.5777  109.6830 C   0  0  0  0  0  0  0  0  0  0  0  0
   63.6754   55.7687  109.8181 C   0  0  0  0  0  0  0  0  0  0  0  0
   64.5344   55.1182  109.2181 N   0  0  0  0  0  0  0  0  0  0  0  0
   62.3927   52.2664  108.8348 C   0  0  0  0  0  0  0  0  0  0  0  0
   62.8746   51.6508  110.8054 C   0  0  0  0  0  0  0  0  0  0  0  0
  4  2  1  0
  4  3  1  0
  5  4  1  0
  6  2  1  0
  7  1  1  0
  8  3  1  0
  9  2  1  0
  9  8  1  0
 10  5  1  0
 10  6  1  0
 10  7  1  0
 11  1  1  0
 11  5  1  0
 11  7  1  0
M  END
>  <ID>  (1) 
conformer_0

$$$$
