
     RDKit          3D

 11 11  0  0  0  0  0  0  0  0999 V2000
   63.7350   50.6810  110.9547 C   0  0  0  0  0  0  0  0  0  0  0  0
   63.0215   51.6864  110.8175 C   0  0  0  0  0  0  0  0  0  0  0  0
   64.4884   54.5269  109.7260 C   0  0  0  0  0  0  0  0  0  0  0  0
   62.8637   52.2667  109.7739 N   0  0  0  0  0  0  0  0  0  0  0  0
   63.4639   56.3725  110.9388 C   0  0  0  0  0  0  0  0  0  0  0  0
   62.4363   49.5724  110.6018 C   0  0  0  0  0  0  0  0  0  0  0  0
   64.1272   55.0063  110.3387 C   0  0  0  0  0  0  0  0  0  0  0  0
   64.8576   54.1518  108.7822 N   0  0  0  0  0  0  0  0  0  0  0  0
   63.6117   53.2462  108.9373 C   0  0  0  0  0  0  0  0  0  0  0  0
   61.9705   51.6649  109.1492 C   0  0  0  0  0  0  0  0  0  0  0  0
   61.7857   50.1733  109.2209 C   0  0  0  0  0  0  0  0  0  0  0  0
  2  1  1  0
  4  2  1  0
  6  1  1  0
  7  3  1  0
  7  5  1  0
  8  3  1  0
  9  4  1  0
  9  8  1  0
 10  4  1  0
 11  6  1  0
 11 10  1  0
M  END
>  <ID>  (1) 
conformer_0

$$$$
