
     RDKit          3D

 13 13  0  0  0  0  0  0  0  0999 V2000
   62.1231   49.6152  110.8570 C   0  0  0  0  0  0  0  0  0  0  0  0
   64.7782   54.7726  109.7598 C   0  0  0  0  0  0  0  0  0  0  0  0
   65.4113   54.8756  109.3798 N   0  0  0  0  0  0  0  0  0  0  0  0
   62.2415   51.2611  109.1923 C   0  0  0  0  0  0  0  0  0  0  0  0
   61.9071   54.0705  109.1007 O   0  0  0  0  0  0  0  0  0  0  0  0
   63.7993   54.9186  111.0391 C   0  0  0  0  0  0  0  0  0  0  0  0
   62.9168   52.1366  109.7277 N   0  0  0  0  0  0  0  0  0  0  0  0
   63.2157   50.4676  111.0627 C   0  0  0  0  0  0  0  0  0  0  0  0
   62.3118   56.0514  110.0095 N   0  0  0  0  0  0  0  0  0  0  0  0
   63.1794   55.9999  110.0853 C   0  0  0  0  0  0  0  0  0  0  0  0
   63.5939   51.9639  110.6057 C   0  0  0  0  0  0  0  0  0  0  0  0
   63.1067   53.6918  109.5109 C   0  0  0  0  0  0  0  0  0  0  0  0
   61.7463   50.2405  109.2850 C   0  0  0  0  0  0  0  0  0  0  0  0
  3  2  1  0
  6  2  1  0
  7  4  1  0
  8  1  1  0
 10  6  1  0
 10  9  1  0
 11  7  1  0
 11  8  1  0
 12  2  1  0
 12  5  2  0
 12  7  1  0
 13  1  1  0
 13  4  1  0
M  END
>  <ID>  (1) 
conformer_0

$$$$
