
     RDKit          3D

  9  8  0  0  0  0  0  0  0  0999 V2000
   63.3355   50.1715  110.9249 C   0  0  0  0  0  0  0  0  0  0  0  0
   63.6894   53.7488  109.0304 C   0  0  0  0  0  0  0  0  0  0  0  0
   62.6582   51.7986  109.9365 C   0  0  0  0  0  0  0  0  0  0  0  0
   62.0912   50.1057  109.9326 C   0  0  0  0  0  0  0  0  0  0  0  0
   62.9379   52.4361  109.8270 N   0  0  0  0  0  0  0  0  0  0  0  0
   62.0913   54.3461  109.2199 O   0  0  0  0  0  0  0  0  0  0  0  0
   64.1035   55.8340  110.7445 C   0  0  0  0  0  0  0  0  0  0  0  0
   63.7914   55.3324  109.9588 C   0  0  0  0  0  0  0  0  0  0  0  0
   64.7535   54.8990  109.3277 N   0  0  0  0  0  0  0  0  0  0  0  0
  4  1  1  0
  4  3  1  0
  5  2  1  0
  5  3  1  0
  6  2  1  0
  8  7  1  0
  9  2  1  0
  9  8  1  0
M  END
>  <ID>  (1) 
conformer_0

$$$$
