
     RDKit          3D

 12 11  0  0  0  0  0  0  0  0999 V2000
   64.1552   54.6338  109.6049 C   0  0  2  0  0  0  0  0  0  0  0  0
   63.2323   49.9411  111.1126 C   0  0  0  0  0  0  0  0  0  0  0  0
   62.2621   50.9717  109.9474 C   0  0  0  0  0  0  0  0  0  0  0  0
   62.8571   52.0900  110.0828 N   0  0  0  0  0  0  0  0  0  0  0  0
   63.9447   54.3621  111.2215 C   0  0  0  0  0  0  0  0  0  0  0  0
   64.7021   56.4871  109.4075 O   0  0  0  0  0  0  0  0  0  0  0  0
   63.2436   55.7112  109.9408 C   0  0  1  0  0  0  0  0  0  0  0  0
   64.1302   53.6150  108.4677 O   0  0  0  0  0  0  0  0  0  0  0  0
   62.6417   55.6153  109.8088 N   0  0  0  0  0  0  0  0  0  0  0  0
   62.8540   53.1680  108.9723 C   0  0  0  0  0  0  0  0  0  0  0  0
   61.8561   49.9463  109.7155 C   0  0  0  0  0  0  0  0  0  0  0  0
   63.4874   52.4771  110.7100 C   0  0  0  0  0  0  0  0  0  0  0  0
  3  2  1  0
  4  3  1  0
  1  5  1  1
  7  1  1  0
  7  6  1  0
  8  1  1  0
  7  9  1  6
 10  4  1  0
 10  8  1  0
 11  3  2  3
 12  4  1  0
M  END
>  <ID>  (1) 
conformer_0

$$$$
