
     RDKit          3D

 11 12  0  0  0  0  0  0  0  0999 V2000
   63.5642   50.7844  110.9210 C   0  0  0  0  0  0  0  0  0  0  0  0
   64.1736   54.1700  109.7569 C   0  0  2  0  0  0  0  0  0  0  0  0
   62.5528   52.8115  108.9504 C   0  0  0  0  0  0  0  0  0  0  0  0
   63.9468   55.1562  110.9134 C   0  0  0  0  0  0  0  0  0  0  0  0
   64.3469   56.8186  109.0671 O   0  0  0  0  0  0  0  0  0  0  0  0
   62.6611   49.6355  110.8521 C   0  0  0  0  0  0  0  0  0  0  0  0
   62.7503   52.5609  109.8407 N   0  0  0  0  0  0  0  0  0  0  0  0
   63.6142   55.7654  109.5945 C   0  0  1  0  0  0  0  0  0  0  0  0
   62.7803   54.2410  108.5714 O   0  0  0  0  0  0  0  0  0  0  0  0
   61.7318   50.1282  109.8251 C   0  0  0  0  0  0  0  0  0  0  0  0
   62.6644   51.7075  110.4427 C   0  0  0  0  0  0  0  0  0  0  0  0
  4  2  1  0
  6  1  1  0
  7  3  2  3
  8  2  1  0
  8  4  1  0
  8  5  1  6
  2  9  1  1
  9  3  1  0
 10  6  1  0
 11  1  1  0
 11  7  1  0
 11 10  1  0
M  END
>  <ID>  (1) 
conformer_0

$$$$
