
     RDKit          3D

 10 11  0  0  0  0  0  0  0  0999 V2000
   62.1269   50.0593  109.9990 C   0  0  0  0  0  0  0  0  0  0  0  0
   64.1290   54.3620  109.3547 C   0  0  0  0  0  0  0  0  0  0  0  0
   62.4047   52.8257  108.8285 C   0  0  0  0  0  0  0  0  0  0  0  0
   64.1573   55.5100  111.2109 C   0  0  0  0  0  0  0  0  0  0  0  0
   63.2847   50.0316  111.0364 C   0  0  0  0  0  0  0  0  0  0  0  0
   62.9035   52.6307  109.6487 N   0  0  0  0  0  0  0  0  0  0  0  0
   62.0518   54.9752  109.1203 O   0  0  0  0  0  0  0  0  0  0  0  0
   65.1524   55.5721  109.2572 N   0  0  0  0  0  0  0  0  0  0  0  0
   63.6695   55.8416  109.6178 C   0  0  0  0  0  0  0  0  0  0  0  0
   62.8552   51.5816  110.1746 C   0  0  0  0  0  0  0  0  0  0  0  0
  5  1  1  0
  6  2  1  0
  6  3  1  0
  8  2  1  0
  9  2  1  0
  9  4  1  0
  9  7  1  0
  9  8  1  0
 10  1  1  0
 10  5  1  0
 10  6  1  0
M  END
>  <ID>  (1) 
conformer_0

$$$$
