
     RDKit          3D

 13 14  0  0  0  0  0  0  0  0999 V2000
   63.5193   50.3361  110.9046 C   0  0  0  0  0  0  0  0  0  0  0  0
   64.4992   54.2347  109.5451 C   0  0  0  0  0  0  0  0  0  0  0  0
   63.8534   54.9715  110.9589 C   0  0  0  0  0  0  0  0  0  0  0  0
   62.8165   53.4027  109.0698 C   0  0  0  0  0  0  0  0  0  0  0  0
   62.9878   52.4808  109.7638 N   0  0  0  0  0  0  0  0  0  0  0  0
   65.3319   54.8849  109.3629 N   0  0  0  0  0  0  0  0  0  0  0  0
   62.3982   49.3998  110.5936 C   0  0  0  0  0  0  0  0  0  0  0  0
   62.5947   54.5479  108.5526 O   0  0  0  0  0  0  0  0  0  0  0  0
   63.6885   51.7738  110.6213 C   0  0  0  0  0  0  0  0  0  0  0  0
   62.0601   51.4223  109.3592 C   0  0  0  0  0  0  0  0  0  0  0  0
   63.5591   55.7572  109.9640 C   0  0  0  0  0  0  0  0  0  0  0  0
   63.9773   56.5141  111.3020 C   0  0  0  0  0  0  0  0  0  0  0  0
   61.7718   50.1637  109.1949 C   0  0  0  0  0  0  0  0  0  0  0  0
  3  2  1  0
  4  2  1  0
  5  4  1  0
  6  2  1  0
  7  1  1  0
  8  4  1  0
  9  1  1  0
  9  5  1  0
 10  5  1  0
 11  3  1  0
 12  3  1  0
 12 11  1  0
 13  7  1  0
 13 10  1  0
M  END
>  <ID>  (1) 
conformer_0

$$$$
