
     RDKit          3D

  9  8  0  0  0  0  0  0  0  0999 V2000
   62.1239   50.2626  109.8278 C   0  0  0  0  0  0  0  0  0  0  0  0
   63.7734   53.7778  110.0933 C   0  0  0  0  0  0  0  0  0  0  0  0
   64.3979   55.7878  111.3261 C   0  0  0  0  0  0  0  0  0  0  0  0
   62.0708   53.1798  108.3035 O   0  0  0  0  0  0  0  0  0  0  0  0
   62.6797   52.0405  109.5889 C   0  0  0  0  0  0  0  0  0  0  0  0
   62.9977   50.1812  110.6970 C   0  0  0  0  0  0  0  0  0  0  0  0
   63.2084   52.9277  109.9884 N   0  0  0  0  0  0  0  0  0  0  0  0
   65.0314   54.6752  109.4278 N   0  0  0  0  0  0  0  0  0  0  0  0
   63.3897   55.6222  109.9524 C   0  0  0  0  0  0  0  0  0  0  0  0
  5  1  1  0
  5  4  2  0
  6  1  1  0
  7  2  1  0
  7  5  1  0
  8  2  1  0
  9  2  1  0
  9  3  1  0
M  END
>  <ID>  (1) 
conformer_0

$$$$
