
     RDKit          3D

 10  9  0  0  0  0  0  0  0  0999 V2000
   63.1831   49.7334  111.0250 C   0  0  0  0  0  0  0  0  0  0  0  0
   64.3967   54.2998  109.6926 C   0  0  0  0  0  0  0  0  0  0  0  0
   62.5177   52.7251  109.0567 C   0  0  0  0  0  0  0  0  0  0  0  0
   65.5722   54.7689  109.5306 N   0  0  0  0  0  0  0  0  0  0  0  0
   63.9568   55.7341  111.1515 C   0  0  0  0  0  0  0  0  0  0  0  0
   62.8707   52.5975  109.9186 N   0  0  0  0  0  0  0  0  0  0  0  0
   62.2263   50.1440  110.0588 C   0  0  0  0  0  0  0  0  0  0  0  0
   63.3440   55.3833  109.9789 C   0  0  0  0  0  0  0  0  0  0  0  0
   62.9699   51.6771  110.6623 C   0  0  0  0  0  0  0  0  0  0  0  0
   62.4763   53.9996  108.5452 O   0  0  0  0  0  0  0  0  0  0  0  0
  3  2  1  0
  4  2  1  0
  6  3  1  0
  7  1  1  0
  8  2  1  0
  8  5  1  0
  9  6  1  0
  9  7  1  0
 10  3  1  0
M  END
>  <ID>  (1) 
conformer_0

$$$$
