
     RDKit          3D

 10  9  0  0  0  0  0  0  0  0999 V2000
   61.8807   50.0447  109.4132 C   0  0  0  0  0  0  0  0  0  0  0  0
   63.8537   55.2550  110.6599 C   0  0  0  0  0  0  0  0  0  0  0  0
   62.3804   51.9528  109.3364 C   0  0  0  0  0  0  0  0  0  0  0  0
   64.0089   54.2358  109.5893 C   0  0  0  0  0  0  0  0  0  0  0  0
   62.8203   49.9583  110.7874 C   0  0  0  0  0  0  0  0  0  0  0  0
   65.0881   54.9294  108.9300 N   0  0  0  0  0  0  0  0  0  0  0  0
   62.0879   53.2162  108.4304 O   0  0  0  0  0  0  0  0  0  0  0  0
   63.4779   56.7046  110.3559 C   0  0  0  0  0  0  0  0  0  0  0  0
   63.1510   52.3220  109.9752 N   0  0  0  0  0  0  0  0  0  0  0  0
   63.7171   52.0576  110.6409 C   0  0  0  0  0  0  0  0  0  0  0  0
  3  1  1  0
  4  2  1  0
  5  1  1  0
  6  4  2  3
  7  3  2  0
  8  2  1  0
  9  3  1  0
  9  4  1  0
 10  9  1  0
M  END
>  <ID>  (1) 
conformer_0

$$$$
