
     RDKit          3D

 13 13  0  0  0  0  0  0  0  0999 V2000
   63.6459   50.2537  111.0533 C   0  0  0  0  0  0  0  0  0  0  0  0
   61.9196   51.8697  109.0256 C   0  0  0  0  0  0  0  0  0  0  0  0
   63.7657   53.2383  110.1442 C   0  0  0  0  0  0  0  0  0  0  0  0
   64.0278   55.0311  110.7289 C   0  0  0  0  0  0  0  0  0  0  0  0
   62.7887   52.1848  109.9087 N   0  0  0  0  0  0  0  0  0  0  0  0
   62.5859   53.4907  108.3541 O   0  0  0  0  0  0  0  0  0  0  0  0
   61.5671   50.3870  108.8185 C   0  0  0  0  0  0  0  0  0  0  0  0
   64.8686   55.4781  109.1276 N   0  0  0  0  0  0  0  0  0  0  0  0
   63.6789   56.2326  110.4907 C   0  0  0  0  0  0  0  0  0  0  0  0
   63.0299   51.3835  110.7474 C   0  0  0  0  0  0  0  0  0  0  0  0
   64.6633   56.9602  109.5170 O   0  0  0  0  0  0  0  0  0  0  0  0
   64.6435   54.9863  108.9869 C   0  0  0  0  0  0  0  0  0  0  0  0
   62.2050   49.6880  110.4903 C   0  0  0  0  0  0  0  0  0  0  0  0
  4  3  1  0
  5  2  1  0
  5  3  1  0
  6  2  2  0
  7  2  1  0
  9  4  1  0
 10  1  1  0
 10  5  1  0
 11  9  1  0
 12  4  1  0
 12  8  1  0
 13  1  1  0
 13  7  1  0
M  END
>  <ID>  (1) 
conformer_0

$$$$
