
     RDKit          3D

  8  7  0  0  0  0  0  0  0  0999 V2000
   63.1871   50.1368  110.9868 C   0  0  0  0  0  0  0  0  0  0  0  0
   64.2049   54.0280  109.2244 C   0  0  0  0  0  0  0  0  0  0  0  0
   62.5807   52.1597  109.6732 C   0  0  0  0  0  0  0  0  0  0  0  0
   62.3661   50.1017  110.0980 C   0  0  0  0  0  0  0  0  0  0  0  0
   64.2454   55.4334  111.1687 C   0  0  0  0  0  0  0  0  0  0  0  0
   62.4489   53.9108  108.7453 O   0  0  0  0  0  0  0  0  0  0  0  0
   63.5581   55.7176  110.1403 C   0  0  0  0  0  0  0  0  0  0  0  0
   62.9233   52.4771  109.7430 N   0  0  0  0  0  0  0  0  0  0  0  0
  4  1  1  0
  4  3  1  0
  6  2  1  0
  7  2  1  0
  7  5  1  0
  8  3  1  0
  8  6  1  0
M  END
>  <ID>  (1) 
conformer_0

$$$$
