
     RDKit          3D

 11 12  0  0  0  0  0  0  0  0999 V2000
   63.3273   50.6266  110.8913 C   0  0  0  0  0  0  0  0  0  0  0  0
   64.2997   54.4942  109.6309 C   0  0  0  0  0  0  0  0  0  0  0  0
   62.7919   53.2812  109.0192 C   0  0  0  0  0  0  0  0  0  0  0  0
   62.4982   49.5679  110.7028 C   0  0  0  0  0  0  0  0  0  0  0  0
   64.7547   55.7558  109.2343 N   0  0  0  0  0  0  0  0  0  0  0  0
   64.1658   55.4956  111.1247 C   0  0  0  0  0  0  0  0  0  0  0  0
   63.2501   53.8303  108.1498 O   0  0  0  0  0  0  0  0  0  0  0  0
   62.8831   52.7054  109.8682 N   0  0  0  0  0  0  0  0  0  0  0  0
   63.4435   55.9887  109.9215 C   0  0  0  0  0  0  0  0  0  0  0  0
   61.8836   50.1720  109.5627 C   0  0  0  0  0  0  0  0  0  0  0  0
   62.8426   51.7888  110.1998 C   0  0  0  0  0  0  0  0  0  0  0  0
  3  2  1  0
  4  1  1  0
  5  2  1  0
  6  2  1  0
  7  3  1  0
  8  3  1  0
  9  2  1  0
  9  5  1  0
  9  6  1  0
 10  4  1  0
 11  1  1  0
 11  8  1  0
M  END
>  <ID>  (1) 
conformer_0

$$$$
