
     RDKit          3D

  9  8  0  0  0  0  0  0  0  0999 V2000
   62.7881   50.1131  110.5504 C   0  0  0  0  0  0  0  0  0  0  0  0
   63.7603   53.7579  109.4846 C   0  0  0  0  0  0  0  0  0  0  0  0
   62.6884   51.8799  109.8210 C   0  0  0  0  0  0  0  0  0  0  0  0
   64.1856   55.3937  110.9947 C   0  0  0  0  0  0  0  0  0  0  0  0
   62.0719   49.8452  109.8531 C   0  0  0  0  0  0  0  0  0  0  0  0
   62.9698   52.6007  109.8198 N   0  0  0  0  0  0  0  0  0  0  0  0
   63.3370   54.2611  108.4469 O   0  0  0  0  0  0  0  0  0  0  0  0
   65.0788   55.3477  109.0362 N   0  0  0  0  0  0  0  0  0  0  0  0
   63.9824   55.7855  110.1723 C   0  0  0  0  0  0  0  0  0  0  0  0
  3  1  1  0
  5  1  1  0
  6  2  1  0
  6  3  1  0
  7  2  1  0
  9  2  1  0
  9  4  1  0
  9  8  1  0
M  END
>  <ID>  (1) 
conformer_0

$$$$
