
     RDKit          3D

 13 13  0  0  0  0  0  0  0  0999 V2000
   63.3313   50.1441  110.8731 C   0  0  0  0  0  0  0  0  0  0  0  0
   63.2818   51.4317  110.9488 C   0  0  0  0  0  0  0  0  0  0  0  0
   64.7375   54.9823  110.2366 C   0  0  0  0  0  0  0  0  0  0  0  0
   64.5642   54.3479  109.3199 C   0  0  0  0  0  0  0  0  0  0  0  0
   62.9580   52.4618  109.8648 N   0  0  0  0  0  0  0  0  0  0  0  0
   62.3397   49.5347  110.1039 C   0  0  0  0  0  0  0  0  0  0  0  0
   62.4424   53.9130  108.6411 O   0  0  0  0  0  0  0  0  0  0  0  0
   63.5203   56.4132  110.4754 C   0  0  0  0  0  0  0  0  0  0  0  0
   62.9733   55.9351  109.9721 N   0  0  0  0  0  0  0  0  0  0  0  0
   62.9094   53.8478  109.6128 C   0  0  0  0  0  0  0  0  0  0  0  0
   62.1909   51.7332  109.2108 C   0  0  0  0  0  0  0  0  0  0  0  0
   64.1611   56.2923  111.6193 C   0  0  0  0  0  0  0  0  0  0  0  0
   61.7471   50.5515  108.7963 C   0  0  0  0  0  0  0  0  0  0  0  0
  2  1  1  0
  4  3  1  0
  5  2  1  0
  6  1  1  0
  8  3  1  0
  9  8  1  0
 10  4  1  0
 10  5  1  0
 10  7  1  0
 11  5  1  0
 12  8  1  0
 13  6  1  0
 13 11  1  0
M  END
>  <ID>  (1) 
conformer_0

$$$$
