
     RDKit          3D

 14 15  0  0  0  0  0  0  0  0999 V2000
   63.4250   50.3416  110.9872 C   0  0  0  0  0  0  0  0  0  0  0  0
   64.6061   54.4301  109.7002 C   0  0  0  0  0  0  0  0  0  0  0  0
   64.1816   55.2607  110.8839 C   0  0  0  0  0  0  0  0  0  0  0  0
   62.4335   49.7299  110.5776 C   0  0  0  0  0  0  0  0  0  0  0  0
   63.0129   54.0007  109.2841 C   0  0  0  0  0  0  0  0  0  0  0  0
   62.2857   56.4962  110.1151 N   0  0  0  0  0  0  0  0  0  0  0  0
   63.1310   52.5017  109.8453 N   0  0  0  0  0  0  0  0  0  0  0  0
   61.8792   53.3240  108.3155 O   0  0  0  0  0  0  0  0  0  0  0  0
   63.1302   56.4903  110.3820 C   0  0  0  0  0  0  0  0  0  0  0  0
   65.5099   54.6208  109.2653 N   0  0  0  0  0  0  0  0  0  0  0  0
   64.2478   53.9331  108.1669 O   0  0  0  0  0  0  0  0  0  0  0  0
   61.7316   50.3262  108.9109 C   0  0  0  0  0  0  0  0  0  0  0  0
   63.7415   51.8670  110.4916 C   0  0  0  0  0  0  0  0  0  0  0  0
   62.0875   51.6830  109.2891 C   0  0  0  0  0  0  0  0  0  0  0  0
  3  2  1  0
  4  1  1  0
  5  2  1  0
  7  5  1  0
  8  5  1  0
  9  3  1  0
  9  6  1  0
 10  2  1  0
 11  2  1  0
 11  5  1  0
 12  4  1  0
 13  1  2  0
 13  7  1  0
 14  7  1  0
 14 12  1  0
M  END
>  <ID>  (1) 
conformer_0

$$$$
