
     RDKit          3D

 10 10  0  0  0  0  0  0  0  0999 V2000
   64.1685   53.9062  109.4529 C   0  0  1  0  0  0  0  0  0  0  0  0
   62.2060   50.1158  109.8248 C   0  0  0  0  0  0  0  0  0  0  0  0
   62.5750   52.4614  108.9060 C   0  0  0  0  0  0  0  0  0  0  0  0
   65.4024   54.8842  109.3927 N   0  0  0  0  0  0  0  0  0  0  0  0
   62.7901   52.3124  109.8980 N   0  0  0  0  0  0  0  0  0  0  0  0
   64.0283   55.3845  111.1204 C   0  0  0  0  0  0  0  0  0  0  0  0
   63.6600   55.3708  110.0417 C   0  0  0  0  0  0  0  0  0  0  0  0
   62.9960   53.6192  108.2824 O   0  0  0  0  0  0  0  0  0  0  0  0
   63.2178   50.2643  110.9603 C   0  0  0  0  0  0  0  0  0  0  0  0
   62.7258   51.5747  110.6768 C   0  0  0  0  0  0  0  0  0  0  0  0
  1  4  1  6
  5  3  2  3
  7  1  1  0
  7  6  1  0
  8  1  1  0
  8  3  1  0
  9  2  1  0
 10  2  1  0
 10  5  1  0
 10  9  1  0
M  END
>  <ID>  (1) 
conformer_0

$$$$
