
     RDKit          3D

 10  9  0  0  0  0  0  0  0  0999 V2000
   62.7538   49.5922  110.6792 C   0  0  0  0  0  0  0  0  0  0  0  0
   63.4889   53.0425  109.9326 C   0  0  0  0  0  0  0  0  0  0  0  0
   62.3876   51.5386  109.9969 C   0  0  0  0  0  0  0  0  0  0  0  0
   63.9927   55.7520  110.6441 C   0  0  0  0  0  0  0  0  0  0  0  0
   64.0281   50.4817  111.0006 C   0  0  0  0  0  0  0  0  0  0  0  0
   62.8582   52.3417  109.9384 N   0  0  0  0  0  0  0  0  0  0  0  0
   64.9109   54.3050  109.2146 N   0  0  0  0  0  0  0  0  0  0  0  0
   63.3159   55.7900  110.1279 C   0  0  0  0  0  0  0  0  0  0  0  0
   61.8353   50.3148  109.6695 C   0  0  0  0  0  0  0  0  0  0  0  0
   64.3078   54.5488  108.7603 C   0  0  0  0  0  0  0  0  0  0  0  0
  5  1  1  0
  6  2  1  0
  6  3  1  0
  8  4  1  0
  9  1  1  0
  9  3  1  0
 10  2  1  0
 10  7  1  0
 10  8  1  0
M  END
>  <ID>  (1) 
conformer_0

$$$$
