
     RDKit          3D

 10 10  0  0  0  0  0  0  0  0999 V2000
   62.4367   49.7071  110.6561 C   0  0  0  0  0  0  0  0  0  0  0  0
   63.7641   53.9420  109.8686 C   0  0  0  0  0  0  0  0  0  0  0  0
   62.7984   51.7328  110.2309 C   0  0  0  0  0  0  0  0  0  0  0  0
   61.7770   50.1881  109.4391 C   0  0  0  0  0  0  0  0  0  0  0  0
   62.0886   54.8271  108.8848 O   0  0  0  0  0  0  0  0  0  0  0  0
   63.9878   55.6880  110.7823 C   0  0  0  0  0  0  0  0  0  0  0  0
   64.4080   54.0228  108.4417 O   0  0  0  0  0  0  0  0  0  0  0  0
   63.7408   50.5099  111.0275 C   0  0  0  0  0  0  0  0  0  0  0  0
   65.0444   54.6465  109.3967 N   0  0  0  0  0  0  0  0  0  0  0  0
   63.7311   55.5369  109.6594 C   0  0  0  0  0  0  0  0  0  0  0  0
  3  2  1  0
  4  1  1  0
  7  2  1  0
  8  1  1  0
  8  3  1  0
  9  2  1  0
  9  7  1  0
 10  2  1  0
 10  5  1  0
 10  6  1  0
M  END
>  <ID>  (1) 
conformer_0

$$$$
