
     RDKit          3D

 12 12  0  0  0  0  0  0  0  0999 V2000
   63.5416   50.2406  111.0465 C   0  0  0  0  0  0  0  0  0  0  0  0
   63.7901   56.0638  110.4621 C   0  0  0  0  0  0  0  0  0  0  0  0
   63.5004   51.7175  110.7653 C   0  0  0  0  0  0  0  0  0  0  0  0
   63.0572   54.2634  108.5649 O   0  0  0  0  0  0  0  0  0  0  0  0
   63.0605   52.3296  109.8455 N   0  0  0  0  0  0  0  0  0  0  0  0
   62.2882   49.6125  110.4513 C   0  0  0  0  0  0  0  0  0  0  0  0
   64.1721   54.4130  110.0258 C   0  0  0  0  0  0  0  0  0  0  0  0
   64.2780   54.8873  110.9028 C   0  0  0  0  0  0  0  0  0  0  0  0
   62.9411   53.4076  108.7027 C   0  0  0  0  0  0  0  0  0  0  0  0
   63.0471   56.4671  110.4385 N   0  0  0  0  0  0  0  0  0  0  0  0
   61.7528   50.3791  108.9451 C   0  0  0  0  0  0  0  0  0  0  0  0
   62.1660   51.5687  109.2066 C   0  0  0  0  0  0  0  0  0  0  0  0
  3  1  1  0
  5  3  1  0
  6  1  1  0
  7  4  1  0
  8  2  1  0
  8  7  1  0
  9  4  1  0
  9  5  1  0
 10  2  1  0
 11  6  1  0
 12  5  1  0
 12 11  1  0
M  END
>  <ID>  (1) 
conformer_0

$$$$
