
     RDKit          3D

 11 10  0  0  0  0  0  0  0  0999 V2000
   61.9854   49.9933  109.8427 C   0  0  0  0  0  0  0  0  0  0  0  0
   63.9791   54.3853  109.6041 C   0  0  0  0  0  0  0  0  0  0  0  0
   62.1808   52.1280  109.1570 C   0  0  0  0  0  0  0  0  0  0  0  0
   63.0393   50.0480  110.7962 C   0  0  0  0  0  0  0  0  0  0  0  0
   65.6457   55.1430  109.3048 N   0  0  0  0  0  0  0  0  0  0  0  0
   62.3995   53.2693  108.1760 O   0  0  0  0  0  0  0  0  0  0  0  0
   62.7471   52.2831  109.8353 N   0  0  0  0  0  0  0  0  0  0  0  0
   64.1755   55.1958  111.0130 C   0  0  0  0  0  0  0  0  0  0  0  0
   62.7182   56.4509  110.3354 N   0  0  0  0  0  0  0  0  0  0  0  0
   63.2081   51.7624  110.5947 C   0  0  0  0  0  0  0  0  0  0  0  0
   63.8380   56.1525  110.3311 C   0  0  0  0  0  0  0  0  0  0  0  0
  4  1  1  0
  5  2  1  0
  6  3  1  0
  7  3  1  0
  8  2  1  0
 10  2  1  0
 10  4  1  0
 10  7  1  0
 11  8  1  0
 11  9  1  0
M  END
>  <ID>  (1) 
conformer_0

$$$$
