
     RDKit          3D

 10 10  0  0  0  0  0  0  0  0999 V2000
   63.4101   50.1642  111.0250 C   0  0  0  0  0  0  0  0  0  0  0  0
   62.1766   51.6832  109.3693 C   0  0  0  0  0  0  0  0  0  0  0  0
   64.0861   53.8054  109.4378 C   0  0  0  0  0  0  0  0  0  0  0  0
   64.2619   55.3797  111.0957 C   0  0  0  0  0  0  0  0  0  0  0  0
   63.8126   53.9617  108.6768 O   0  0  0  0  0  0  0  0  0  0  0  0
   62.9153   52.1689  110.0364 N   0  0  0  0  0  0  0  0  0  0  0  0
   61.9462   50.1077  109.8464 C   0  0  0  0  0  0  0  0  0  0  0  0
   63.6513   55.9983  109.9670 C   0  0  0  0  0  0  0  0  0  0  0  0
   63.3900   51.9108  110.8133 C   0  0  0  0  0  0  0  0  0  0  0  0
   62.9460   56.1043  109.8212 N   0  0  0  0  0  0  0  0  0  0  0  0
  4  3  1  0
  5  3  1  0
  6  2  1  0
  6  3  1  0
  7  1  1  0
  7  2  1  0
  8  4  1  0
  9  1  1  0
  9  6  1  0
 10  8  1  0
M  END
>  <ID>  (1) 
conformer_0

$$$$
