
     RDKit          3D

  9  8  0  0  0  0  0  0  0  0999 V2000
   62.4783   49.5659  110.7340 C   0  0  0  0  0  0  0  0  0  0  0  0
   63.6691   54.1434  109.6839 C   0  0  0  0  0  0  0  0  0  0  0  0
   62.8483   52.1047  109.6502 C   0  0  0  0  0  0  0  0  0  0  0  0
   61.8801   50.4427  109.5696 C   0  0  0  0  0  0  0  0  0  0  0  0
   64.1536   54.0338  108.2240 O   0  0  0  0  0  0  0  0  0  0  0  0
   64.1490   57.2213  109.4746 O   0  0  0  0  0  0  0  0  0  0  0  0
   63.7310   56.0006  110.1149 C   0  0  0  0  0  0  0  0  0  0  0  0
   64.2106   54.5831  110.6633 C   0  0  0  0  0  0  0  0  0  0  0  0
   63.6669   50.7014  110.9187 C   0  0  0  0  0  0  0  0  0  0  0  0
  3  2  1  0
  4  1  1  0
  4  3  1  0
  5  2  1  0
  7  6  1  0
  8  2  1  0
  8  7  1  0
  9  1  1  0
M  END
>  <ID>  (1) 
conformer_0

$$$$
