
     RDKit          3D

 12 12  0  0  0  0  0  0  0  0999 V2000
   62.3245   49.7406  110.6549 C   0  0  0  0  0  0  0  0  0  0  0  0
   63.4094   54.0618  109.3299 C   0  0  2  0  0  0  0  0  0  0  0  0
   62.1336   51.5936  109.2854 C   0  0  0  0  0  0  0  0  0  0  0  0
   64.0345   55.7485  111.0772 C   0  0  0  0  0  0  0  0  0  0  0  0
   61.6534   50.0955  109.2015 C   0  0  0  0  0  0  0  0  0  0  0  0
   64.0235   56.9958  108.9078 O   0  0  0  0  0  0  0  0  0  0  0  0
   62.7556   52.1639  109.8290 N   0  0  0  0  0  0  0  0  0  0  0  0
   63.8547   55.7009  109.7140 C   0  0  0  0  0  0  0  0  0  0  0  0
   62.0691   53.6832  108.8631 O   0  0  0  0  0  0  0  0  0  0  0  0
   64.3839   53.7635  109.8864 N   0  0  0  0  0  0  0  0  0  0  0  0
   63.4824   52.0357  110.6019 C   0  0  0  0  0  0  0  0  0  0  0  0
   63.5115   50.1540  111.1069 C   0  0  0  0  0  0  0  0  0  0  0  0
  5  1  1  0
  5  3  1  0
  7  3  1  0
  8  2  1  0
  8  4  2  3
  8  6  1  0
  9  2  1  0
  9  7  1  0
  2 10  1  1
 11  7  1  0
 12  1  1  0
 12 11  1  0
M  END
>  <ID>  (1) 
conformer_0

$$$$
