
     RDKit          3D

  8  7  0  0  0  0  0  0  0  0999 V2000
   63.2533   50.0407  110.9105 C   0  0  0  0  0  0  0  0  0  0  0  0
   64.0685   53.7107  109.5016 C   0  0  0  0  0  0  0  0  0  0  0  0
   62.6846   51.9177  110.1599 C   0  0  0  0  0  0  0  0  0  0  0  0
   64.0981   53.6568  108.1383 O   0  0  0  0  0  0  0  0  0  0  0  0
   62.1868   50.3289  109.6325 C   0  0  0  0  0  0  0  0  0  0  0  0
   63.4463   55.5304  110.0423 C   0  0  0  0  0  0  0  0  0  0  0  0
   62.9055   52.4680  110.0730 N   0  0  0  0  0  0  0  0  0  0  0  0
   64.2018   54.9756  110.4927 C   0  0  0  0  0  0  0  0  0  0  0  0
  4  2  2  0
  5  1  1  0
  5  3  1  0
  7  2  1  0
  7  3  1  0
  8  2  1  0
  8  6  1  0
M  END
>  <ID>  (1) 
conformer_0

$$$$
