
     RDKit          3D

 13 14  0  0  0  0  0  0  0  0999 V2000
   61.7918   50.3391  109.4675 C   0  0  0  0  0  0  0  0  0  0  0  0
   64.5112   55.0021  109.0570 C   0  0  0  0  0  0  0  0  0  0  0  0
   62.7292   51.4116  110.7042 C   0  0  0  0  0  0  0  0  0  0  0  0
   62.3892   49.5377  110.6096 C   0  0  0  0  0  0  0  0  0  0  0  0
   62.5877   56.6711  110.2420 N   0  0  0  0  0  0  0  0  0  0  0  0
   62.7845   53.7412  108.2471 O   0  0  0  0  0  0  0  0  0  0  0  0
   62.9931   52.5479  109.8591 N   0  0  0  0  0  0  0  0  0  0  0  0
   63.9244   55.2000  110.6274 C   0  0  0  0  0  0  0  0  0  0  0  0
   63.2065   56.2879  110.5352 C   0  0  0  0  0  0  0  0  0  0  0  0
   65.1225   54.7368  109.3124 N   0  0  0  0  0  0  0  0  0  0  0  0
   63.7043   50.4958  110.9580 C   0  0  0  0  0  0  0  0  0  0  0  0
   63.8978   53.7670  110.0264 C   0  0  0  0  0  0  0  0  0  0  0  0
   62.4853   52.2853  108.9093 C   0  0  0  0  0  0  0  0  0  0  0  0
  3  1  1  0
  4  1  1  0
  7  3  1  0
  8  2  1  0
  9  5  1  0
  9  8  1  0
 10  2  1  0
 11  3  1  0
 11  4  1  0
 12  2  1  0
 12  7  1  0
 12  8  1  0
 13  6  1  0
 13  7  1  0
M  END
>  <ID>  (1) 
conformer_0

$$$$
