
     RDKit          3D

 12 12  0  0  0  0  0  0  0  0999 V2000
   62.0478   50.0129  109.9086 C   0  0  0  0  0  0  0  0  0  0  0  0
   63.2227   51.7401  110.7044 C   0  0  0  0  0  0  0  0  0  0  0  0
   64.3246   54.0021  109.8759 C   0  0  0  0  0  0  0  0  0  0  0  0
   64.0536   55.2248  110.9249 C   0  0  0  0  0  0  0  0  0  0  0  0
   64.5747   57.0773  109.6012 O   0  0  0  0  0  0  0  0  0  0  0  0
   62.6629   52.3546  109.7508 N   0  0  0  0  0  0  0  0  0  0  0  0
   65.0464   53.6010  109.7268 N   0  0  0  0  0  0  0  0  0  0  0  0
   62.3703   54.5690  108.7629 O   0  0  0  0  0  0  0  0  0  0  0  0
   63.7231   55.9816  110.1436 C   0  0  0  0  0  0  0  0  0  0  0  0
   63.0073   49.9867  110.9405 C   0  0  0  0  0  0  0  0  0  0  0  0
   62.7956   53.4554  109.0359 C   0  0  0  0  0  0  0  0  0  0  0  0
   61.9051   51.3770  109.2240 C   0  0  0  0  0  0  0  0  0  0  0  0
  4  3  1  0
  6  2  1  0
  7  3  1  0
  9  4  1  0
  9  5  1  0
 10  1  1  0
 10  2  2  0
 11  3  1  0
 11  6  1  0
 11  8  1  0
 12  1  2  0
 12  6  1  0
M  END
>  <ID>  (1) 
conformer_0

$$$$
