
     RDKit          3D

 10 10  0  0  0  0  0  0  0  0999 V2000
   63.4657   50.7766  110.9388 C   0  0  0  0  0  0  0  0  0  0  0  0
   62.6001   55.0313  109.2069 C   0  0  1  0  0  0  0  0  0  0  0  0
   62.4778   51.6880  109.6186 C   0  0  0  0  0  0  0  0  0  0  0  0
   62.8352   49.6319  111.0310 C   0  0  0  0  0  0  0  0  0  0  0  0
   62.1720   52.9577  108.7927 O   0  0  0  0  0  0  0  0  0  0  0  0
   64.0899   55.7135  111.2515 C   0  0  0  0  0  0  0  0  0  0  0  0
   63.1905   55.0170  108.1128 O   0  0  0  0  0  0  0  0  0  0  0  0
   61.9014   50.1587  109.6440 C   0  0  0  0  0  0  0  0  0  0  0  0
   63.7779   53.2736  109.9017 C   0  0  0  0  0  0  0  0  0  0  0  0
   64.1292   55.6652  110.0624 C   0  0  0  0  0  0  0  0  0  0  0  0
  3  1  1  0
  4  1  1  0
  5  3  1  0
  2  7  1  6
  8  3  1  0
  8  4  1  0
  9  2  1  0
  9  3  1  0
 10  2  1  0
 10  6  2  3
M  END
>  <ID>  (1) 
conformer_0

$$$$
