
     RDKit          3D

 13 15  0  0  0  0  0  0  0  0999 V2000
   64.5860   55.1228  109.2837 C   0  0  0  0  0  0  0  0  0  0  0  0
   61.6805   50.3631  109.4971 C   0  0  0  0  0  0  0  0  0  0  0  0
   61.9020   51.4339  110.6907 C   0  0  0  0  0  0  0  0  0  0  0  0
   62.8587   52.1427  109.7897 N   0  0  0  0  0  0  0  0  0  0  0  0
   63.4486   53.7701  108.3445 O   0  0  0  0  0  0  0  0  0  0  0  0
   62.4282   49.7176  110.7266 C   0  0  0  0  0  0  0  0  0  0  0  0
   63.7544   56.2063  110.6035 C   0  0  0  0  0  0  0  0  0  0  0  0
   62.2657   52.1249  108.6387 C   0  0  0  0  0  0  0  0  0  0  0  0
   63.7394   55.4364  110.7944 C   0  0  0  0  0  0  0  0  0  0  0  0
   64.5013   55.9896  109.6772 N   0  0  0  0  0  0  0  0  0  0  0  0
   63.5864   53.9974  109.2508 C   0  0  0  0  0  0  0  0  0  0  0  0
   63.8625   51.7469  110.5329 C   0  0  0  0  0  0  0  0  0  0  0  0
   63.9896   50.6719  111.1239 C   0  0  0  0  0  0  0  0  0  0  0  0
  3  2  1  0
  4  3  1  0
  6  2  1  0
  6  3  1  0
  8  4  1  0
  9  1  1  0
  9  7  1  0
 10  1  1  0
 10  7  1  0
 11  1  1  0
 11  5  1  0
 11  8  1  0
 12  4  1  0
 13  6  1  0
 13 12  1  0
M  END
>  <ID>  (1) 
conformer_0

$$$$
