
     RDKit          3D

 11 10  0  0  0  0  0  0  0  0999 V2000
   62.5786   49.4352  110.7524 C   0  0  0  0  0  0  0  0  0  0  0  0
   63.8734   54.5363  109.2876 C   0  0  0  0  0  0  0  0  0  0  0  0
   63.5345   52.7982  110.1229 C   0  0  0  0  0  0  0  0  0  0  0  0
   63.2743   50.4952  111.0357 C   0  0  0  0  0  0  0  0  0  0  0  0
   63.6516   54.9342  108.3062 O   0  0  0  0  0  0  0  0  0  0  0  0
   64.3115   54.5884  111.1755 C   0  0  0  0  0  0  0  0  0  0  0  0
   63.0347   52.3577  109.9400 N   0  0  0  0  0  0  0  0  0  0  0  0
   63.8709   55.6121  110.3696 C   0  0  0  0  0  0  0  0  0  0  0  0
   64.4676   55.6634  109.6830 N   0  0  0  0  0  0  0  0  0  0  0  0
   62.2817   51.3360  109.6962 C   0  0  0  0  0  0  0  0  0  0  0  0
   61.6426   50.3054  109.2141 C   0  0  0  0  0  0  0  0  0  0  0  0
  4  1  1  0
  5  2  1  0
  6  3  1  0
  7  3  1  0
  8  6  1  0
  9  2  1  0
  9  8  1  0
 10  4  1  0
 10  7  1  0
 11 10  2  3
M  END
>  <ID>  (1) 
conformer_0

$$$$
