
     RDKit          3D

 10  9  0  0  0  0  0  0  0  0999 V2000
   62.9328   49.7686  110.6572 C   0  0  0  0  0  0  0  0  0  0  0  0
   64.5980   54.5854  109.4843 C   0  0  0  0  0  0  0  0  0  0  0  0
   63.0774   53.1272  109.6177 C   0  0  0  0  0  0  0  0  0  0  0  0
   65.5438   54.8227  109.4188 N   0  0  0  0  0  0  0  0  0  0  0  0
   64.1300   55.2067  110.9301 C   0  0  0  0  0  0  0  0  0  0  0  0
   62.4837   54.2462  108.5314 O   0  0  0  0  0  0  0  0  0  0  0  0
   62.0390   50.1644  109.9346 C   0  0  0  0  0  0  0  0  0  0  0  0
   62.9927   52.7332  109.8643 N   0  0  0  0  0  0  0  0  0  0  0  0
   63.4355   55.8159  110.0542 C   0  0  0  0  0  0  0  0  0  0  0  0
   62.5349   51.5669  110.1898 C   0  0  0  0  0  0  0  0  0  0  0  0
  3  2  1  0
  4  2  1  0
  5  2  1  0
  6  3  2  0
  7  1  1  0
  8  3  1  0
  9  5  1  0
 10  7  1  0
 10  8  1  0
M  END
>  <ID>  (1) 
conformer_0

$$$$
