
     RDKit          3D

 10  9  0  0  0  0  0  0  0  0999 V2000
   62.4474   49.6508  110.6254 C   0  0  0  0  0  0  0  0  0  0  0  0
   64.2698   54.3897  109.4068 C   0  0  0  0  0  0  0  0  0  0  0  0
   62.2088   51.6114  109.3188 C   0  0  0  0  0  0  0  0  0  0  0  0
   63.4916   50.4713  110.9366 C   0  0  0  0  0  0  0  0  0  0  0  0
   64.2091   55.8119  111.0399 C   0  0  0  0  0  0  0  0  0  0  0  0
   64.5217   55.1290  109.2402 N   0  0  0  0  0  0  0  0  0  0  0  0
   62.8035   52.3621  109.8833 N   0  0  0  0  0  0  0  0  0  0  0  0
   63.6480   55.9761  110.0573 C   0  0  0  0  0  0  0  0  0  0  0  0
   61.7959   50.2092  109.1850 C   0  0  0  0  0  0  0  0  0  0  0  0
   63.2951   52.5059  110.5028 C   0  0  0  0  0  0  0  0  0  0  0  0
  4  1  1  0
  6  2  1  0
  7  3  2  3
  8  5  1  0
  8  6  1  0
  9  1  1  0
  9  3  1  0
 10  2  1  0
 10  7  1  0
M  END
>  <ID>  (1) 
conformer_0

$$$$
