
     RDKit          3D

 10 10  0  0  0  0  0  0  0  0999 V2000
   61.9621   50.3059  109.6700 C   0  0  0  0  0  0  0  0  0  0  0  0
   64.1025   54.1473  109.5544 C   0  0  0  0  0  0  0  0  0  0  0  0
   63.8340   55.8600  110.1486 C   0  0  0  0  0  0  0  0  0  0  0  0
   62.9300   51.5470  110.5450 C   0  0  0  0  0  0  0  0  0  0  0  0
   65.5576   54.6332  109.2502 N   0  0  0  0  0  0  0  0  0  0  0  0
   62.9278   52.3777  109.8894 N   0  0  0  0  0  0  0  0  0  0  0  0
   62.9959   49.8786  110.8507 C   0  0  0  0  0  0  0  0  0  0  0  0
   62.0069   54.1345  108.7872 O   0  0  0  0  0  0  0  0  0  0  0  0
   62.4243   52.8954  108.9295 C   0  0  0  0  0  0  0  0  0  0  0  0
   64.3067   56.6999  110.0157 N   0  0  0  0  0  0  0  0  0  0  0  0
  3  2  1  0
  4  1  1  0
  5  2  1  0
  6  4  1  0
  7  1  1  0
  7  4  1  0
  9  2  1  0
  9  6  1  0
  9  8  1  0
 10  3  1  0
M  END
>  <ID>  (1) 
conformer_0

$$$$
