
     RDKit          3D

 11 11  0  0  0  0  0  0  0  0999 V2000
   62.5261   49.8285  110.7296 C   0  0  0  0  0  0  0  0  0  0  0  0
   63.6393   54.3579  109.2951 C   0  0  0  0  0  0  0  0  0  0  0  0
   63.5326   52.1032  110.5345 C   0  0  0  0  0  0  0  0  0  0  0  0
   63.6064   50.6732  111.0306 C   0  0  0  0  0  0  0  0  0  0  0  0
   62.4593   53.5149  108.3891 O   0  0  0  0  0  0  0  0  0  0  0  0
   63.6432   56.0754  109.7932 N   0  0  0  0  0  0  0  0  0  0  0  0
   63.0096   52.4704  109.7608 N   0  0  0  0  0  0  0  0  0  0  0  0
   64.2673   55.3936  111.2211 C   0  0  0  0  0  0  0  0  0  0  0  0
   63.8737   55.5386  110.2126 C   0  0  0  0  0  0  0  0  0  0  0  0
   62.2391   52.0643  109.0392 C   0  0  0  0  0  0  0  0  0  0  0  0
   61.7837   50.4336  109.4908 C   0  0  0  0  0  0  0  0  0  0  0  0
  4  1  1  0
  4  3  1  0
  5  2  1  0
  7  3  1  0
  9  2  1  0
  9  6  1  0
  9  8  2  3
 10  5  1  0
 10  7  2  0
 11  1  1  0
 11 10  1  0
M  END
>  <ID>  (1) 
conformer_0

$$$$
