
     RDKit          3D

  9  8  0  0  0  0  0  0  0  0999 V2000
   63.5024   50.1812  111.0772 C   0  0  0  0  0  0  0  0  0  0  0  0
   63.8845   55.8505  110.2023 C   0  0  0  0  0  0  0  0  0  0  0  0
   62.7728   51.9346  109.8983 C   0  0  0  0  0  0  0  0  0  0  0  0
   62.4950   49.5785  110.7327 C   0  0  0  0  0  0  0  0  0  0  0  0
   63.2833   53.8520  108.4497 O   0  0  0  0  0  0  0  0  0  0  0  0
   63.7433   54.0463  109.3852 C   0  0  0  0  0  0  0  0  0  0  0  0
   62.9439   52.3142  110.0018 N   0  0  0  0  0  0  0  0  0  0  0  0
   64.3094   55.1502  111.0564 C   0  0  0  0  0  0  0  0  0  0  0  0
   61.8771   50.4690  109.1888 C   0  0  0  0  0  0  0  0  0  0  0  0
  4  1  1  0
  6  2  1  0
  6  5  1  0
  7  3  1  0
  7  6  1  0
  8  2  1  0
  9  3  1  0
  9  4  1  0
M  END
>  <ID>  (1) 
conformer_0

$$$$
