
     RDKit          3D

  9  9  0  0  0  0  0  0  0  0999 V2000
   63.1957   49.9791  110.9407 C   0  0  0  0  0  0  0  0  0  0  0  0
   63.9663   53.7752  109.6849 C   0  0  0  0  0  0  0  0  0  0  0  0
   62.8161   51.5215  110.6359 C   0  0  0  0  0  0  0  0  0  0  0  0
   63.3812   53.9250  108.1319 O   0  0  0  0  0  0  0  0  0  0  0  0
   64.3698   55.0611  110.8837 C   0  0  0  0  0  0  0  0  0  0  0  0
   63.0629   52.5608  109.9461 N   0  0  0  0  0  0  0  0  0  0  0  0
   62.1877   50.3924  109.3771 C   0  0  0  0  0  0  0  0  0  0  0  0
   63.5509   55.4689  110.1581 C   0  0  0  0  0  0  0  0  0  0  0  0
   62.4898   52.4145  108.9769 C   0  0  0  0  0  0  0  0  0  0  0  0
  3  1  1  0
  4  2  2  0
  5  2  1  0
  6  2  1  0
  6  3  1  0
  7  1  1  0
  7  3  1  0
  8  5  1  0
  9  6  1  0
M  END
>  <ID>  (1) 
conformer_0

$$$$
