
     RDKit          3D

 10  9  0  0  0  0  0  0  0  0999 V2000
   62.0460   50.2658  109.3864 C   0  0  0  0  0  0  0  0  0  0  0  0
   63.8285   53.8971  109.6669 C   0  0  0  0  0  0  0  0  0  0  0  0
   63.5909   55.5163  110.0648 C   0  0  0  0  0  0  0  0  0  0  0  0
   64.1293   55.1360  110.9085 C   0  0  0  0  0  0  0  0  0  0  0  0
   63.0956   50.0598  110.6036 C   0  0  0  0  0  0  0  0  0  0  0  0
   62.8650   52.5263  109.9533 N   0  0  0  0  0  0  0  0  0  0  0  0
   65.1559   54.6715  109.2113 N   0  0  0  0  0  0  0  0  0  0  0  0
   63.5408   51.7723  110.8143 C   0  0  0  0  0  0  0  0  0  0  0  0
   62.1736   54.0637  109.0679 O   0  0  0  0  0  0  0  0  0  0  0  0
   62.2076   52.3406  109.2018 C   0  0  0  0  0  0  0  0  0  0  0  0
  3  2  1  0
  4  3  1  0
  5  1  1  0
  6  2  1  0
  7  2  2  3
  8  5  1  0
  8  6  1  0
 10  6  1  0
 10  9  1  0
M  END
>  <ID>  (1) 
conformer_0

$$$$
