
     RDKit          3D

 10 10  0  0  0  0  0  0  0  0999 V2000
   62.0327   50.4508  109.6375 C   0  0  0  0  0  0  0  0  0  0  0  0
   63.9846   53.7494  109.9108 C   0  0  0  0  0  0  0  0  0  0  0  0
   62.6189   51.9127  109.7916 C   0  0  0  0  0  0  0  0  0  0  0  0
   62.4572   49.8783  110.9180 C   0  0  0  0  0  0  0  0  0  0  0  0
   64.4155   55.0803  110.7262 C   0  0  0  0  0  0  0  0  0  0  0  0
   64.3278   56.7528  109.1693 O   0  0  0  0  0  0  0  0  0  0  0  0
   63.0122   52.5486  109.9452 N   0  0  0  0  0  0  0  0  0  0  0  0
   65.3008   54.2947  109.3153 N   0  0  0  0  0  0  0  0  0  0  0  0
   63.6880   55.7544  109.9890 C   0  0  0  0  0  0  0  0  0  0  0  0
   63.7609   50.5556  111.0127 C   0  0  0  0  0  0  0  0  0  0  0  0
  3  1  1  0
  4  1  1  0
  5  2  1  0
  7  2  1  0
  7  3  1  0
  8  2  1  0
  8  5  1  0
  9  5  1  0
  9  6  1  0
 10  4  1  0
M  END
>  <ID>  (1) 
conformer_0

$$$$
