
     RDKit          3D

  9  8  0  0  0  0  0  0  0  0999 V2000
   62.0455   50.0649  109.9978 C   0  0  0  0  0  0  0  0  0  0  0  0
   63.4926   53.0604  109.3633 C   0  0  0  0  0  0  0  0  0  0  0  0
   62.5598   51.5216  110.4086 C   0  0  0  0  0  0  0  0  0  0  0  0
   62.7241   56.5804  110.2127 N   0  0  0  0  0  0  0  0  0  0  0  0
   64.4411   54.5541  109.3530 C   0  0  0  0  0  0  0  0  0  0  0  0
   62.8068   49.7850  111.0346 C   0  0  0  0  0  0  0  0  0  0  0  0
   62.9198   52.2703  110.0734 N   0  0  0  0  0  0  0  0  0  0  0  0
   65.4414   54.9615  108.9679 N   0  0  0  0  0  0  0  0  0  0  0  0
   63.6105   55.7671  110.1618 C   0  0  0  0  0  0  0  0  0  0  0  0
  3  1  1  0
  5  2  1  0
  6  1  1  0
  7  2  1  0
  7  3  1  0
  8  5  1  0
  9  4  1  0
  9  5  1  0
M  END
>  <ID>  (1) 
conformer_0

$$$$
