
     RDKit          3D

  9  9  0  0  0  0  0  0  0  0999 V2000
   63.3811   50.0507  111.1085 C   0  0  0  0  0  0  0  0  0  0  0  0
   63.4594   53.8106  109.5423 C   0  0  0  0  0  0  0  0  0  0  0  0
   62.6427   51.8400  109.9250 C   0  0  0  0  0  0  0  0  0  0  0  0
   62.1637   50.1251  109.9420 C   0  0  0  0  0  0  0  0  0  0  0  0
   64.1950   56.8762  110.1452 O   0  0  0  0  0  0  0  0  0  0  0  0
   62.8669   52.5189  109.8566 N   0  0  0  0  0  0  0  0  0  0  0  0
   65.3663   55.1181  109.5036 N   0  0  0  0  0  0  0  0  0  0  0  0
   63.8254   55.4258  109.9137 C   0  0  0  0  0  0  0  0  0  0  0  0
   62.9417   55.1468  108.4789 O   0  0  0  0  0  0  0  0  0  0  0  0
  4  1  1  0
  4  3  1  0
  6  2  1  0
  6  3  1  0
  8  2  1  0
  8  5  1  0
  8  7  1  0
  9  2  1  0
  9  8  1  0
M  END
>  <ID>  (1) 
conformer_0

$$$$
