
     RDKit          3D

 11 11  0  0  0  0  0  0  0  0999 V2000
   62.1556   49.6587  110.5683 C   0  0  0  0  0  0  0  0  0  0  0  0
   63.3241   51.7784  110.6717 C   0  0  0  0  0  0  0  0  0  0  0  0
   63.9534   55.9208  110.7268 C   0  0  0  0  0  0  0  0  0  0  0  0
   64.2302   54.9852  110.1153 C   0  0  0  0  0  0  0  0  0  0  0  0
   62.7866   52.5195  109.8520 N   0  0  0  0  0  0  0  0  0  0  0  0
   63.4801   50.5214  110.9171 C   0  0  0  0  0  0  0  0  0  0  0  0
   64.9837   54.5301  109.5565 N   0  0  0  0  0  0  0  0  0  0  0  0
   62.8104   54.0499  108.5697 O   0  0  0  0  0  0  0  0  0  0  0  0
   63.1786   54.0218  109.2034 C   0  0  0  0  0  0  0  0  0  0  0  0
   62.1251   52.0032  109.0453 C   0  0  0  0  0  0  0  0  0  0  0  0
   61.7831   50.2799  109.2399 C   0  0  0  0  0  0  0  0  0  0  0  0
  4  3  2  3
  5  2  1  0
  6  1  1  0
  6  2  1  0
  7  4  1  0
  9  4  1  0
  9  5  1  0
  9  8  2  0
 10  5  1  0
 11  1  1  0
 11 10  2  0
M  END
>  <ID>  (1) 
conformer_0

$$$$
