
     RDKit          3D

 11 10  0  0  0  0  0  0  0  0999 V2000
   63.5581   50.5784  111.0302 C   0  0  0  0  0  0  0  0  0  0  0  0
   64.0659   54.2018  109.6470 C   0  0  0  0  0  0  0  0  0  0  0  0
   62.8653   49.6920  110.8395 C   0  0  0  0  0  0  0  0  0  0  0  0
   62.5378   51.8983  109.6345 C   0  0  0  0  0  0  0  0  0  0  0  0
   65.4944   54.9930  109.2313 N   0  0  0  0  0  0  0  0  0  0  0  0
   64.1050   55.5885  111.1607 C   0  0  0  0  0  0  0  0  0  0  0  0
   62.3108   53.4713  108.3206 O   0  0  0  0  0  0  0  0  0  0  0  0
   61.8375   50.1357  109.2708 C   0  0  0  0  0  0  0  0  0  0  0  0
   62.6978   52.2380  109.6816 N   0  0  0  0  0  0  0  0  0  0  0  0
   63.5515   56.1425  109.9935 C   0  0  0  0  0  0  0  0  0  0  0  0
   62.3853   56.2752  110.0703 N   0  0  0  0  0  0  0  0  0  0  0  0
  3  1  1  0
  4  2  1  0
  5  2  1  0
  8  3  1  0
  8  4  1  0
  9  4  1  0
  9  7  1  0
 10  2  1  0
 10  6  1  0
 11 10  1  0
M  END
>  <ID>  (1) 
conformer_0

$$$$
