
     RDKit          3D

 10  9  0  0  0  0  0  0  0  0999 V2000
   63.1841   50.1629  110.9026 C   0  0  0  0  0  0  0  0  0  0  0  0
   64.1975   54.1827  109.1290 C   0  0  0  0  0  0  0  0  0  0  0  0
   62.4627   51.8149  110.7068 C   0  0  0  0  0  0  0  0  0  0  0  0
   64.0992   55.4926  110.9050 C   0  0  0  0  0  0  0  0  0  0  0  0
   62.2167   50.3472  110.1511 C   0  0  0  0  0  0  0  0  0  0  0  0
   62.8852   52.8399  109.9015 N   0  0  0  0  0  0  0  0  0  0  0  0
   63.0537   54.6185  108.4724 O   0  0  0  0  0  0  0  0  0  0  0  0
   64.0273   55.9364  109.6379 C   0  0  0  0  0  0  0  0  0  0  0  0
   65.0240   55.7332  108.9375 N   0  0  0  0  0  0  0  0  0  0  0  0
   62.7581   52.9619  109.0063 C   0  0  0  0  0  0  0  0  0  0  0  0
  5  1  1  0
  5  3  1  0
  6  3  1  0
  7  2  1  0
  8  4  2  3
  9  2  1  0
  9  8  1  0
 10  6  1  0
 10  7  1  0
M  END
>  <ID>  (1) 
conformer_0

$$$$
