
     RDKit          3D

 10 10  0  0  0  0  0  0  0  0999 V2000
   63.2040   49.8694  110.9888 C   0  0  0  0  0  0  0  0  0  0  0  0
   63.6251   51.8460  110.6624 C   0  0  0  0  0  0  0  0  0  0  0  0
   63.5026   54.0579  109.3823 C   0  0  0  0  0  0  0  0  0  0  0  0
   64.0690   54.6579  111.0125 C   0  0  0  0  0  0  0  0  0  0  0  0
   62.9228   52.4221  109.9470 N   0  0  0  0  0  0  0  0  0  0  0  0
   63.4923   54.1254  108.4449 O   0  0  0  0  0  0  0  0  0  0  0  0
   62.2091   50.0006  110.3240 C   0  0  0  0  0  0  0  0  0  0  0  0
   63.5733   55.7051  109.9511 C   0  0  0  0  0  0  0  0  0  0  0  0
   62.1029   52.1404  109.4445 C   0  0  0  0  0  0  0  0  0  0  0  0
   64.9392   55.0111  109.2073 N   0  0  0  0  0  0  0  0  0  0  0  0
  2  1  1  0
  5  2  1  0
  5  3  1  0
  6  3  1  0
  7  1  1  0
  8  3  1  0
  8  4  1  0
  9  5  1  0
 10  3  1  0
 10  8  1  0
M  END
>  <ID>  (1) 
conformer_0

$$$$
