
     RDKit          3D

 10  9  0  0  0  0  0  0  0  0999 V2000
   62.8664   49.8869  110.6330 C   0  0  0  0  0  0  0  0  0  0  0  0
   63.1543   51.7306  110.7075 C   0  0  0  0  0  0  0  0  0  0  0  0
   64.3303   55.2260  111.1015 C   0  0  0  0  0  0  0  0  0  0  0  0
   63.8434   54.0241  109.6928 C   0  0  0  0  0  0  0  0  0  0  0  0
   61.8906   49.9373  109.7754 C   0  0  0  0  0  0  0  0  0  0  0  0
   62.8772   52.3122  109.9005 N   0  0  0  0  0  0  0  0  0  0  0  0
   62.2084   54.0344  109.1048 O   0  0  0  0  0  0  0  0  0  0  0  0
   64.8877   54.1751  108.8841 O   0  0  0  0  0  0  0  0  0  0  0  0
   63.5451   55.9760  110.1394 C   0  0  0  0  0  0  0  0  0  0  0  0
   62.2205   52.1807  109.0069 C   0  0  0  0  0  0  0  0  0  0  0  0
  2  1  1  0
  4  3  1  0
  5  1  1  0
  6  2  1  0
  7  4  1  0
  8  4  1  0
  9  3  1  0
 10  6  1  0
 10  7  1  0
M  END
>  <ID>  (1) 
conformer_0

$$$$
