
     RDKit          3D

 13 13  0  0  0  0  0  0  0  0999 V2000
   62.2051   49.5963  110.5545 C   0  0  0  0  0  0  0  0  0  0  0  0
   64.3245   54.3508  110.0492 C   0  0  0  0  0  0  0  0  0  0  0  0
   65.7621   54.7362  109.5413 N   0  0  0  0  0  0  0  0  0  0  0  0
   63.6202   56.1739  110.2751 C   0  0  0  0  0  0  0  0  0  0  0  0
   63.9280   54.8684  110.9908 C   0  0  0  0  0  0  0  0  0  0  0  0
   62.8209   52.4409  109.7295 N   0  0  0  0  0  0  0  0  0  0  0  0
   61.9807   50.2251  108.9342 C   0  0  0  0  0  0  0  0  0  0  0  0
   63.1873   51.6783  110.8690 C   0  0  0  0  0  0  0  0  0  0  0  0
   62.3823   54.8284  109.0237 O   0  0  0  0  0  0  0  0  0  0  0  0
   62.6591   53.8287  108.8483 C   0  0  0  0  0  0  0  0  0  0  0  0
   64.1627   56.2281  109.7858 N   0  0  0  0  0  0  0  0  0  0  0  0
   63.5107   50.4539  110.8312 C   0  0  0  0  0  0  0  0  0  0  0  0
   62.3621   51.7803  109.0029 C   0  0  0  0  0  0  0  0  0  0  0  0
  3  2  1  0
  5  2  1  0
  5  4  1  0
  7  1  1  0
  8  6  1  0
 10  2  1  0
 10  6  1  0
 10  9  1  0
 11  4  1  0
 12  1  1  0
 12  8  1  0
 13  6  1  0
 13  7  1  0
M  END
>  <ID>  (1) 
conformer_0

$$$$
