
     RDKit          3D

  9  9  0  0  0  0  0  0  0  0999 V2000
   62.4719   50.0046  110.0107 C   0  0  0  0  0  0  0  0  0  0  0  0
   64.2112   53.8139  109.3963 C   0  0  0  0  0  0  0  0  0  0  0  0
   64.0773   55.5818  111.2804 C   0  0  0  0  0  0  0  0  0  0  0  0
   62.2417   52.5657  108.9375 C   0  0  0  0  0  0  0  0  0  0  0  0
   65.0970   54.9574  109.2705 N   0  0  0  0  0  0  0  0  0  0  0  0
   62.8394   52.5927  109.7838 N   0  0  0  0  0  0  0  0  0  0  0  0
   63.3513   50.1577  110.7507 C   0  0  0  0  0  0  0  0  0  0  0  0
   63.9119   55.2617  110.1098 C   0  0  0  0  0  0  0  0  0  0  0  0
   62.9106   51.7619  110.4721 C   0  0  0  0  0  0  0  0  0  0  0  0
  5  2  1  0
  6  2  1  0
  6  4  1  0
  7  1  1  0
  8  2  1  0
  8  3  1  0
  8  5  1  0
  9  6  1  0
  9  7  1  0
M  END
>  <ID>  (1) 
conformer_0

$$$$
