
     RDKit          3D

 11 12  0  0  0  0  0  0  0  0999 V2000
   63.2683   50.3282  111.0576 C   0  0  0  0  0  0  0  0  0  0  0  0
   63.4513   54.5936  109.9257 C   0  0  0  0  0  0  0  0  0  0  0  0
   63.6371   56.4275  110.5749 C   0  0  0  0  0  0  0  0  0  0  0  0
   63.2719   51.6031  110.5879 C   0  0  0  0  0  0  0  0  0  0  0  0
   62.0715   49.6841  110.6689 C   0  0  0  0  0  0  0  0  0  0  0  0
   64.1727   55.2018  111.0615 C   0  0  0  0  0  0  0  0  0  0  0  0
   63.3388   52.5794  109.6720 N   0  0  0  0  0  0  0  0  0  0  0  0
   63.8757   55.4655  108.9583 N   0  0  0  0  0  0  0  0  0  0  0  0
   64.1279   54.2836  108.7396 C   0  0  0  0  0  0  0  0  0  0  0  0
   61.9170   50.5179  108.9840 C   0  0  0  0  0  0  0  0  0  0  0  0
   62.6319   52.4530  108.8439 C   0  0  0  0  0  0  0  0  0  0  0  0
  3  2  1  0
  4  1  1  0
  5  1  1  0
  6  2  1  0
  6  3  1  0
  7  4  1  0
  8  2  1  0
  9  2  1  0
  9  8  1  0
 10  5  1  0
 11  7  1  0
 11  9  1  0
M  END
>  <ID>  (1) 
conformer_0

$$$$
