
     RDKit          3D

 12 13  0  0  0  0  0  0  0  0999 V2000
   64.3760   54.8839  109.4315 C   0  0  0  0  0  0  0  0  0  0  0  0
   63.4672   50.1077  111.0476 C   0  0  0  0  0  0  0  0  0  0  0  0
   62.6921   51.2091  110.7562 C   0  0  0  0  0  0  0  0  0  0  0  0
   62.7418   52.3031  110.0256 N   0  0  0  0  0  0  0  0  0  0  0  0
   63.4736   53.9801  108.3382 O   0  0  0  0  0  0  0  0  0  0  0  0
   61.9417   49.5600  110.4721 C   0  0  0  0  0  0  0  0  0  0  0  0
   63.5412   56.2442  110.1696 C   0  0  0  0  0  0  0  0  0  0  0  0
   65.0178   55.1445  109.2444 N   0  0  0  0  0  0  0  0  0  0  0  0
   62.2112   52.3425  108.7910 C   0  0  0  0  0  0  0  0  0  0  0  0
   64.0417   55.2376  111.0329 C   0  0  0  0  0  0  0  0  0  0  0  0
   61.8542   50.6459  108.7938 C   0  0  0  0  0  0  0  0  0  0  0  0
   63.5662   53.4622  110.0059 C   0  0  0  0  0  0  0  0  0  0  0  0
  3  2  1  0
  4  3  1  0
  6  2  1  0
  6  3  1  0
  7  1  1  0
  8  1  1  0
  9  4  1  0
 10  1  1  0
 10  7  1  0
 11  9  1  0
 12  1  1  0
 12  4  1  0
 12  5  1  0
M  END
>  <ID>  (1) 
conformer_0

$$$$
