
     RDKit          3D

  9  9  0  0  0  0  0  0  0  0999 V2000
   63.8564   53.8718  109.3760 C   0  0  0  0  0  0  0  0  0  0  0  0
   63.3752   50.0760  111.1011 C   0  0  0  0  0  0  0  0  0  0  0  0
   62.6379   51.8012  109.8269 C   0  0  0  0  0  0  0  0  0  0  0  0
   62.9272   52.2007  109.7862 N   0  0  0  0  0  0  0  0  0  0  0  0
   63.7360   55.5128  110.0941 C   0  0  0  0  0  0  0  0  0  0  0  0
   62.1255   50.0659  109.7682 C   0  0  0  0  0  0  0  0  0  0  0  0
   62.2002   53.5026  108.4204 O   0  0  0  0  0  0  0  0  0  0  0  0
   65.2586   54.9318  109.3441 N   0  0  0  0  0  0  0  0  0  0  0  0
   63.9090   55.1858  111.2471 C   0  0  0  0  0  0  0  0  0  0  0  0
  4  1  1  0
  4  3  1  0
  5  1  1  0
  6  2  1  0
  6  3  1  0
  7  1  1  0
  8  1  1  0
  8  5  1  0
  9  5  1  0
M  END
>  <ID>  (1) 
conformer_0

$$$$
