
     RDKit          3D

 12 11  0  0  0  0  0  0  0  0999 V2000
   63.5133   50.1635  111.0340 C   0  0  0  0  0  0  0  0  0  0  0  0
   63.1460   51.6811  110.5536 C   0  0  0  0  0  0  0  0  0  0  0  0
   64.0935   54.0921  109.7253 C   0  0  2  0  0  0  0  0  0  0  0  0
   64.0392   55.4720  111.2639 C   0  0  0  0  0  0  0  0  0  0  0  0
   62.2772   49.8938  110.4355 C   0  0  0  0  0  0  0  0  0  0  0  0
   63.0595   53.9374  108.6989 O   0  0  0  0  0  0  0  0  0  0  0  0
   62.9072   52.4108  109.8794 N   0  0  0  0  0  0  0  0  0  0  0  0
   64.2524   57.0666  109.6236 O   0  0  0  0  0  0  0  0  0  0  0  0
   63.9945   55.9710  110.2587 C   0  0  0  0  0  0  0  0  0  0  0  0
   62.3157   52.5325  108.8316 C   0  0  0  0  0  0  0  0  0  0  0  0
   65.0412   54.2722  109.7907 N   0  0  0  0  0  0  0  0  0  0  0  0
   61.7743   50.4643  108.9154 C   0  0  0  0  0  0  0  0  0  0  0  0
  2  1  1  0
  5  1  1  0
  6  3  1  0
  7  2  1  0
  9  3  1  0
  9  4  2  3
  9  8  1  0
 10  6  1  0
 10  7  1  0
  3 11  1  6
 12  5  1  0
M  END
>  <ID>  (1) 
conformer_0

$$$$
