
     RDKit          3D

 10  9  0  0  0  0  0  0  0  0999 V2000
   63.4819   50.0077  111.0164 C   0  0  0  0  0  0  0  0  0  0  0  0
   63.6317   53.4173  109.5494 C   0  0  0  0  0  0  0  0  0  0  0  0
   62.5811   51.5619  110.1214 C   0  0  0  0  0  0  0  0  0  0  0  0
   63.7839   55.9721  110.5008 C   0  0  0  0  0  0  0  0  0  0  0  0
   62.2831   49.5980  110.6510 C   0  0  0  0  0  0  0  0  0  0  0  0
   62.8839   53.1510  108.1632 O   0  0  0  0  0  0  0  0  0  0  0  0
   63.0232   52.3768  109.9929 N   0  0  0  0  0  0  0  0  0  0  0  0
   64.5994   55.8070  109.5973 N   0  0  0  0  0  0  0  0  0  0  0  0
   64.3689   54.7227  108.8634 C   0  0  0  0  0  0  0  0  0  0  0  0
   61.5567   50.2754  109.2359 C   0  0  0  0  0  0  0  0  0  0  0  0
  5  1  2  3
  6  2  2  0
  7  2  1  0
  7  3  1  0
  8  4  1  0
  9  2  1  0
  9  8  1  0
 10  3  1  0
 10  5  1  0
M  END
>  <ID>  (1) 
conformer_0

$$$$
