
     RDKit          3D

 13 13  0  0  0  0  0  0  0  0999 V2000
   62.6858   49.4246  110.8736 C   0  0  0  0  0  0  0  0  0  0  0  0
   64.4909   54.7601  109.5185 C   0  0  0  0  0  0  0  0  0  0  0  0
   63.5305   53.8157  109.0361 C   0  0  0  0  0  0  0  0  0  0  0  0
   63.6130   50.4522  111.0170 C   0  0  0  0  0  0  0  0  0  0  0  0
   63.0569   52.4893  109.7748 N   0  0  0  0  0  0  0  0  0  0  0  0
   63.5042   56.1102  110.6531 C   0  0  0  0  0  0  0  0  0  0  0  0
   63.3038   54.0067  108.0954 O   0  0  0  0  0  0  0  0  0  0  0  0
   62.5002   56.3459  110.7331 N   0  0  0  0  0  0  0  0  0  0  0  0
   62.1714   51.8186  109.1825 C   0  0  0  0  0  0  0  0  0  0  0  0
   65.2108   54.9165  109.1608 N   0  0  0  0  0  0  0  0  0  0  0  0
   64.1959   55.5827  110.8500 C   0  0  0  0  0  0  0  0  0  0  0  0
   63.4468   51.9538  110.7016 C   0  0  0  0  0  0  0  0  0  0  0  0
   61.8506   50.1282  109.6301 C   0  0  0  0  0  0  0  0  0  0  0  0
  3  2  1  0
  4  1  1  0
  5  3  1  0
  7  3  2  0
  8  6  1  0
  9  5  1  0
 10  2  1  0
 11  2  1  0
 11  6  1  0
 12  4  1  0
 12  5  1  0
 13  1  1  0
 13  9  2  0
M  END
>  <ID>  (1) 
conformer_0

$$$$
