
     RDKit          3D

  9  8  0  0  0  0  0  0  0  0999 V2000
   62.0147   50.3395  109.5979 C   0  0  0  0  0  0  0  0  0  0  0  0
   64.2439   55.5014  110.7469 C   0  0  0  0  0  0  0  0  0  0  0  0
   62.5663   52.3287  109.1898 C   0  0  0  0  0  0  0  0  0  0  0  0
   64.5160   53.9869  109.3259 C   0  0  0  0  0  0  0  0  0  0  0  0
   62.9106   50.1180  110.8228 C   0  0  0  0  0  0  0  0  0  0  0  0
   62.2378   53.4690  108.6592 O   0  0  0  0  0  0  0  0  0  0  0  0
   63.1126   52.5683  110.1126 N   0  0  0  0  0  0  0  0  0  0  0  0
   63.2303   56.1795  110.3475 C   0  0  0  0  0  0  0  0  0  0  0  0
   63.2232   52.0765  110.9083 C   0  0  0  0  0  0  0  0  0  0  0  0
  4  2  1  0
  5  1  1  0
  6  3  1  0
  7  3  1  0
  8  2  1  0
  9  4  1  0
  9  5  1  0
  9  7  1  0
M  END
>  <ID>  (1) 
conformer_0

$$$$
