
     RDKit          3D

 13 13  0  0  0  0  0  0  0  0999 V2000
   63.4456   50.3209  111.0374 C   0  0  0  0  0  0  0  0  0  0  0  0
   63.9065   55.9830  110.0025 C   0  0  0  0  0  0  0  0  0  0  0  0
   64.6599   54.9829  108.6326 C   0  0  0  0  0  0  0  0  0  0  0  0
   62.3285   49.6485  110.6458 C   0  0  0  0  0  0  0  0  0  0  0  0
   62.9509   52.5889  109.9839 N   0  0  0  0  0  0  0  0  0  0  0  0
   62.5972   54.0352  108.6880 O   0  0  0  0  0  0  0  0  0  0  0  0
   64.0581   55.8802  110.9121 C   0  0  0  0  0  0  0  0  0  0  0  0
   63.8550   53.9975  110.1784 C   0  0  0  0  0  0  0  0  0  0  0  0
   65.2376   55.5389  108.9183 N   0  0  0  0  0  0  0  0  0  0  0  0
   62.8796   53.0507  108.4793 C   0  0  0  0  0  0  0  0  0  0  0  0
   61.8548   50.5688  109.1354 C   0  0  0  0  0  0  0  0  0  0  0  0
   61.9652   51.7457  109.5457 C   0  0  0  0  0  0  0  0  0  0  0  0
   63.2288   51.8174  111.2456 C   0  0  0  0  0  0  0  0  0  0  0  0
  4  1  1  0
  7  2  1  0
  8  2  1  0
  8  6  1  0
  9  2  1  0
  9  3  1  0
 10  5  1  0
 10  6  1  0
 11  4  1  0
 12  5  1  0
 12 11  1  0
 13  1  1  0
 13  5  1  0
M  END
>  <ID>  (1) 
conformer_0

$$$$
