
     RDKit          3D

 13 13  0  0  0  0  0  0  0  0999 V2000
   63.8821   50.4718  110.8514 C   0  0  0  0  0  0  0  0  0  0  0  0
   64.8233   54.7183  109.3195 C   0  0  0  0  0  0  0  0  0  0  0  0
   63.1985   51.8968  110.9597 C   0  0  0  0  0  0  0  0  0  0  0  0
   63.9480   55.5705  110.8019 C   0  0  0  0  0  0  0  0  0  0  0  0
   61.7863   50.3484  109.0882 C   0  0  0  0  0  0  0  0  0  0  0  0
   65.5009   54.6695  109.4858 N   0  0  0  0  0  0  0  0  0  0  0  0
   62.8385   52.5925  109.8694 N   0  0  0  0  0  0  0  0  0  0  0  0
   62.1226   54.7141  109.2650 O   0  0  0  0  0  0  0  0  0  0  0  0
   63.1709   55.8503  110.2082 C   0  0  0  0  0  0  0  0  0  0  0  0
   61.9916   51.6813  109.5320 C   0  0  0  0  0  0  0  0  0  0  0  0
   62.2892   56.3947  109.8326 N   0  0  0  0  0  0  0  0  0  0  0  0
   62.4361   49.8431  110.3376 C   0  0  0  0  0  0  0  0  0  0  0  0
   63.1345   53.5911  109.0799 C   0  0  0  0  0  0  0  0  0  0  0  0
  3  1  1  0
  4  2  1  0
  6  2  1  0
  7  3  1  0
  9  4  1  0
  9  8  1  0
 10  5  1  0
 10  7  1  0
 11  9  1  0
 12  1  1  0
 12  5  1  0
 13  7  1  0
 13  8  1  0
M  END
>  <ID>  (1) 
conformer_0

$$$$
