
     RDKit          3D

  9  8  0  0  0  0  0  0  0  0999 V2000
   62.6567   49.7178  110.7034 C   0  0  0  0  0  0  0  0  0  0  0  0
   63.7690   54.1810  109.4644 C   0  0  0  0  0  0  0  0  0  0  0  0
   62.6926   51.9939  109.8593 C   0  0  0  0  0  0  0  0  0  0  0  0
   63.5469   50.6116  111.0121 C   0  0  0  0  0  0  0  0  0  0  0  0
   63.1777   53.6613  108.3998 O   0  0  0  0  0  0  0  0  0  0  0  0
   62.8429   52.4959  109.8859 N   0  0  0  0  0  0  0  0  0  0  0  0
   64.0217   55.6452  110.0749 C   0  0  0  0  0  0  0  0  0  0  0  0
   64.2325   55.4575  111.2458 C   0  0  0  0  0  0  0  0  0  0  0  0
   61.8326   50.2342  109.3311 C   0  0  0  0  0  0  0  0  0  0  0  0
  4  1  1  0
  4  3  1  0
  5  2  2  0
  6  2  1  0
  6  3  1  0
  7  2  1  0
  8  7  1  0
  9  1  1  0
M  END
>  <ID>  (1) 
conformer_0

$$$$
