
     RDKit          3D

  7  6  0  0  0  0  0  0  0  0999 V2000
   64.2478   55.3412  109.9100 C   0  0  0  0  0  0  0  0  0  0  0  0
   62.8411   49.9971  110.9035 C   0  0  0  0  0  0  0  0  0  0  0  0
   62.6835   51.9837  109.7695 C   0  0  0  0  0  0  0  0  0  0  0  0
   65.5701   55.3178  109.0467 N   0  0  0  0  0  0  0  0  0  0  0  0
   62.0930   50.3548  109.5153 C   0  0  0  0  0  0  0  0  0  0  0  0
   63.7216   53.9364  109.9420 C   0  0  0  0  0  0  0  0  0  0  0  0
   62.9821   55.6795  110.3349 N   0  0  0  0  0  0  0  0  0  0  0  0
  4  1  2  3
  5  2  1  0
  5  3  1  0
  6  1  1  0
  6  3  3  0
  7  1  1  0
M  END
>  <ID>  (1) 
conformer_0

$$$$
