
     RDKit          3D

  9  9  0  0  0  0  0  0  0  0999 V2000
   63.0107   50.0817  110.8704 C   0  0  0  0  0  0  0  0  0  0  0  0
   62.1519   52.7038  108.9034 C   0  0  0  0  0  0  0  0  0  0  0  0
   63.2393   55.7552  110.1941 C   0  0  0  0  0  0  0  0  0  0  0  0
   64.7136   55.0876  110.7517 C   0  0  0  0  0  0  0  0  0  0  0  0
   62.0668   50.2857  109.5260 C   0  0  0  0  0  0  0  0  0  0  0  0
   62.9767   52.6415  109.7461 N   0  0  0  0  0  0  0  0  0  0  0  0
   63.2513   51.7056  110.4677 C   0  0  0  0  0  0  0  0  0  0  0  0
   63.0932   54.7306  108.9282 O   0  0  0  0  0  0  0  0  0  0  0  0
   63.8697   54.1095  109.5881 C   0  0  0  0  0  0  0  0  0  0  0  0
  4  3  1  0
  5  1  1  0
  6  2  1  0
  7  1  1  0
  7  6  1  0
  8  3  1  0
  9  4  1  0
  9  6  1  0
  9  8  1  0
M  END
>  <ID>  (1) 
conformer_0

$$$$
