
     RDKit          3D

 12 12  0  0  0  0  0  0  0  0999 V2000
   61.8540   50.1672  109.8500 C   0  0  0  0  0  0  0  0  0  0  0  0
   63.3407   54.4916  109.0596 C   0  0  0  0  0  0  0  0  0  0  0  0
   62.0776   51.5089  109.4482 C   0  0  0  0  0  0  0  0  0  0  0  0
   64.0338   55.2166  111.1286 C   0  0  0  0  0  0  0  0  0  0  0  0
   62.8277   49.5028  110.9740 C   0  0  0  0  0  0  0  0  0  0  0  0
   62.7969   52.4741  109.6990 N   0  0  0  0  0  0  0  0  0  0  0  0
   62.8074   53.7986  108.4460 O   0  0  0  0  0  0  0  0  0  0  0  0
   63.1173   56.6280  110.0566 N   0  0  0  0  0  0  0  0  0  0  0  0
   63.9228   55.9168  110.2604 C   0  0  0  0  0  0  0  0  0  0  0  0
   65.0813   54.5029  109.2279 N   0  0  0  0  0  0  0  0  0  0  0  0
   63.4455   50.7237  110.7352 C   0  0  0  0  0  0  0  0  0  0  0  0
   63.4714   52.6507  109.9459 C   0  0  0  0  0  0  0  0  0  0  0  0
  3  1  1  0
  5  1  1  0
  6  3  1  0
  7  2  1  0
  7  6  1  0
  9  2  1  0
  9  4  1  0
  9  8  1  0
 10  2  1  0
 11  1  1  0
 11  5  1  0
 12  6  1  0
M  END
>  <ID>  (1) 
conformer_0

$$$$
