
     RDKit          3D

  8  8  0  0  0  0  0  0  0  0999 V2000
   63.0949   49.9909  110.9531 C   0  0  0  0  0  0  0  0  0  0  0  0
   62.9863   52.8370  108.9149 C   0  0  0  0  0  0  0  0  0  0  0  0
   63.6188   55.7077  110.1497 C   0  0  0  0  0  0  0  0  0  0  0  0
   62.5433   51.4552  110.2065 C   0  0  0  0  0  0  0  0  0  0  0  0
   63.0689   52.4231  109.6168 N   0  0  0  0  0  0  0  0  0  0  0  0
   64.3653   55.7184  111.0535 C   0  0  0  0  0  0  0  0  0  0  0  0
   64.4539   54.0094  109.1186 C   0  0  0  0  0  0  0  0  0  0  0  0
   61.9839   49.9547  109.8954 C   0  0  0  0  0  0  0  0  0  0  0  0
  4  1  1  0
  5  2  1  0
  5  4  1  0
  6  3  1  0
  7  2  1  0
  7  3  1  0
  8  1  1  0
  8  4  1  0
M  END
>  <ID>  (1) 
conformer_0

$$$$
