
     RDKit          3D

 11 11  0  0  0  0  0  0  0  0999 V2000
   63.4781   50.5283  110.8089 C   0  0  0  0  0  0  0  0  0  0  0  0
   64.0523   55.2512  110.6050 C   0  0  0  0  0  0  0  0  0  0  0  0
   62.9413   51.8526  110.1877 C   0  0  0  0  0  0  0  0  0  0  0  0
   62.3761   49.9541  110.1079 C   0  0  0  0  0  0  0  0  0  0  0  0
   65.1966   54.9008  109.6013 N   0  0  0  0  0  0  0  0  0  0  0  0
   62.8106   53.7161  108.3179 O   0  0  0  0  0  0  0  0  0  0  0  0
   63.8027   55.8013  111.0347 C   0  0  0  0  0  0  0  0  0  0  0  0
   62.9892   52.6994  109.6195 N   0  0  0  0  0  0  0  0  0  0  0  0
   64.1546   54.3188  109.2343 C   0  0  0  0  0  0  0  0  0  0  0  0
   61.8076   50.5324  108.9036 C   0  0  0  0  0  0  0  0  0  0  0  0
   62.3697   52.8480  108.7057 C   0  0  0  0  0  0  0  0  0  0  0  0
  3  1  1  0
  4  1  1  0
  5  2  1  0
  7  2  1  0
  8  3  1  0
  9  2  1  0
  9  5  1  0
 10  4  1  0
 11  6  1  0
 11  8  1  0
 11  9  1  0
M  END
>  <ID>  (1) 
conformer_0

$$$$
