
     RDKit          3D

 11 11  0  0  0  0  0  0  0  0999 V2000
   63.1837   50.6660  111.0483 C   0  0  0  0  0  0  0  0  0  0  0  0
   63.7709   55.5257  110.2431 C   0  0  0  0  0  0  0  0  0  0  0  0
   64.2076   55.4466  111.3008 C   0  0  0  0  0  0  0  0  0  0  0  0
   62.2013   52.5465  108.9285 C   0  0  0  0  0  0  0  0  0  0  0  0
   62.7502   49.7211  110.5251 C   0  0  0  0  0  0  0  0  0  0  0  0
   62.6362   54.1061  108.5851 O   0  0  0  0  0  0  0  0  0  0  0  0
   62.9714   52.6297  109.8517 N   0  0  0  0  0  0  0  0  0  0  0  0
   64.9783   55.2274  109.0582 N   0  0  0  0  0  0  0  0  0  0  0  0
   63.3127   51.7858  110.4359 C   0  0  0  0  0  0  0  0  0  0  0  0
   63.9232   54.3088  109.4429 C   0  0  0  0  0  0  0  0  0  0  0  0
   62.0025   50.4885  109.1691 C   0  0  0  0  0  0  0  0  0  0  0  0
  3  2  1  0
  5  1  1  0
  6  4  1  0
  7  4  1  0
  8  2  1  0
  9  1  1  0
  9  7  1  0
 10  2  1  0
 10  6  1  0
 10  8  1  0
 11  5  1  0
M  END
>  <ID>  (1) 
conformer_0

$$$$
