
     RDKit          3D

  8  7  0  0  0  0  0  0  0  0999 V2000
   61.9868   50.1025  109.8428 C   0  0  0  0  0  0  0  0  0  0  0  0
   63.8929   53.7018  109.4859 C   0  0  0  0  0  0  0  0  0  0  0  0
   64.3057   55.1467  111.0873 C   0  0  0  0  0  0  0  0  0  0  0  0
   62.5974   51.8901  109.7213 C   0  0  0  0  0  0  0  0  0  0  0  0
   64.1629   54.6444  108.6726 O   0  0  0  0  0  0  0  0  0  0  0  0
   62.6734   49.8320  110.8457 C   0  0  0  0  0  0  0  0  0  0  0  0
   63.1931   52.6333  109.9000 N   0  0  0  0  0  0  0  0  0  0  0  0
   63.9068   55.7547  110.1751 C   0  0  0  0  0  0  0  0  0  0  0  0
  4  1  1  0
  5  2  1  0
  6  1  1  0
  7  2  1  0
  7  4  1  0
  8  3  1  0
  8  5  1  0
M  END
>  <ID>  (1) 
conformer_0

$$$$
