
     RDKit          3D

 10  9  0  0  0  0  0  0  0  0999 V2000
   62.7095   49.7340  110.8497 C   0  0  0  0  0  0  0  0  0  0  0  0
   63.9575   54.1763  109.3182 C   0  0  0  0  0  0  0  0  0  0  0  0
   61.8547   50.2899  109.7257 C   0  0  0  0  0  0  0  0  0  0  0  0
   62.5873   52.1597  109.7392 C   0  0  0  0  0  0  0  0  0  0  0  0
   64.3795   55.5826  111.0397 C   0  0  0  0  0  0  0  0  0  0  0  0
   62.1878   53.4525  108.5579 O   0  0  0  0  0  0  0  0  0  0  0  0
   65.0563   55.0443  108.7516 N   0  0  0  0  0  0  0  0  0  0  0  0
   63.2742   50.8292  110.8750 C   0  0  0  0  0  0  0  0  0  0  0  0
   62.7020   56.0138  109.8341 N   0  0  0  0  0  0  0  0  0  0  0  0
   63.5439   55.7368  109.9199 C   0  0  0  0  0  0  0  0  0  0  0  0
  3  1  1  0
  6  2  1  0
  6  4  1  0
  7  2  1  0
  8  1  1  0
  8  4  1  0
 10  2  1  0
 10  5  1  0
 10  9  1  0
M  END
>  <ID>  (1) 
conformer_0

$$$$
