
     RDKit          3D

  8  7  0  0  0  0  0  0  0  0999 V2000
   62.2209   50.2126  109.9207 C   0  0  0  0  0  0  0  0  0  0  0  0
   63.7824   53.7422  108.9421 C   0  0  0  0  0  0  0  0  0  0  0  0
   62.5116   52.0968  109.7069 C   0  0  0  0  0  0  0  0  0  0  0  0
   64.3216   55.6055  111.4236 C   0  0  0  0  0  0  0  0  0  0  0  0
   63.1288   50.0605  110.8499 C   0  0  0  0  0  0  0  0  0  0  0  0
   65.3651   54.8989  109.4254 N   0  0  0  0  0  0  0  0  0  0  0  0
   64.1535   55.1902  110.1219 C   0  0  0  0  0  0  0  0  0  0  0  0
   62.5513   54.0502  108.8048 O   0  0  0  0  0  0  0  0  0  0  0  0
  3  1  1  0
  3  2  1  0
  5  1  1  0
  7  2  1  0
  7  4  1  0
  7  6  1  0
  8  2  1  0
M  END
>  <ID>  (1) 
conformer_0

$$$$
