
     RDKit          3D

 12 12  0  0  0  0  0  0  0  0999 V2000
   63.5018   50.7917  110.8816 C   0  0  0  0  0  0  0  0  0  0  0  0
   64.2094   54.3517  109.8821 C   0  0  0  0  0  0  0  0  0  0  0  0
   62.9496   51.6830  110.1500 C   0  0  0  0  0  0  0  0  0  0  0  0
   64.1259   55.6875  111.3958 C   0  0  0  0  0  0  0  0  0  0  0  0
   62.0800   53.2845  108.3213 O   0  0  0  0  0  0  0  0  0  0  0  0
   62.5562   49.5602  110.7131 C   0  0  0  0  0  0  0  0  0  0  0  0
   65.0418   54.3519  109.4182 N   0  0  0  0  0  0  0  0  0  0  0  0
   62.5729   56.0060  109.8091 N   0  0  0  0  0  0  0  0  0  0  0  0
   63.2921   55.9232  109.9915 C   0  0  0  0  0  0  0  0  0  0  0  0
   63.1910   52.6105  109.7986 N   0  0  0  0  0  0  0  0  0  0  0  0
   61.9109   50.3408  109.4170 C   0  0  0  0  0  0  0  0  0  0  0  0
   63.0658   53.3082  108.9454 C   0  0  0  0  0  0  0  0  0  0  0  0
  3  1  1  0
  6  1  1  0
  7  2  1  0
  9  2  1  0
  9  4  1  0
  9  8  1  0
 10  3  1  0
 11  3  1  0
 11  6  1  0
 12  2  1  0
 12  5  2  0
 12 10  1  0
M  END
>  <ID>  (1) 
conformer_0

$$$$
