
     RDKit          3D

 12 12  0  0  0  0  0  0  0  0999 V2000
   62.3423   49.7171  110.5538 C   0  0  0  0  0  0  0  0  0  0  0  0
   63.3264   51.8326  111.0683 C   0  0  0  0  0  0  0  0  0  0  0  0
   64.1728   55.1643  110.9227 C   0  0  0  0  0  0  0  0  0  0  0  0
   63.8276   54.8498  109.6559 C   0  0  0  0  0  0  0  0  0  0  0  0
   63.1710   53.8103  108.1035 O   0  0  0  0  0  0  0  0  0  0  0  0
   63.0784   52.4499  109.9664 N   0  0  0  0  0  0  0  0  0  0  0  0
   61.8054   50.2749  109.4134 C   0  0  0  0  0  0  0  0  0  0  0  0
   63.4664   56.6658  110.4483 C   0  0  0  0  0  0  0  0  0  0  0  0
   63.3275   56.7308  110.0635 N   0  0  0  0  0  0  0  0  0  0  0  0
   63.5067   53.2512  108.9639 C   0  0  0  0  0  0  0  0  0  0  0  0
   63.7790   50.3321  110.9077 C   0  0  0  0  0  0  0  0  0  0  0  0
   62.0707   51.6270  109.5122 C   0  0  0  0  0  0  0  0  0  0  0  0
  4  3  1  0
  6  2  1  0
  7  1  1  0
  8  3  1  0
  9  8  1  0
 10  4  1  0
 10  5  1  0
 10  6  1  0
 11  1  1  0
 11  2  1  0
 12  6  1  0
 12  7  1  0
M  END
>  <ID>  (1) 
conformer_0

$$$$
