
     RDKit          3D

 13 14  0  0  0  0  0  0  0  0999 V2000
   62.3033   49.5053  110.7781 C   0  0  0  0  0  0  0  0  0  0  0  0
   64.4112   54.7773  109.7131 C   0  0  0  0  0  0  0  0  0  0  0  0
   64.1295   52.7536  110.1773 C   0  0  0  0  0  0  0  0  0  0  0  0
   62.9356   52.5285  109.7781 N   0  0  0  0  0  0  0  0  0  0  0  0
   61.7090   50.2571  109.6960 C   0  0  0  0  0  0  0  0  0  0  0  0
   65.3004   54.4735  109.6957 N   0  0  0  0  0  0  0  0  0  0  0  0
   62.7310   53.9455  108.6432 O   0  0  0  0  0  0  0  0  0  0  0  0
   64.0434   55.7286  111.2594 C   0  0  0  0  0  0  0  0  0  0  0  0
   63.4205   56.0737  110.0606 C   0  0  0  0  0  0  0  0  0  0  0  0
   62.5031   52.8593  108.7376 C   0  0  0  0  0  0  0  0  0  0  0  0
   63.4106   56.6846  109.7078 N   0  0  0  0  0  0  0  0  0  0  0  0
   62.3413   51.4386  110.3628 C   0  0  0  0  0  0  0  0  0  0  0  0
   63.5204   50.5675  110.9363 C   0  0  0  0  0  0  0  0  0  0  0  0
  3  2  1  0
  4  3  1  0
  5  1  1  0
  6  2  1  0
  8  2  1  0
  9  2  1  0
  9  8  1  0
 10  4  1  0
 10  7  1  0
 11  9  1  0
 12  4  1  0
 12  5  1  0
 13  1  1  0
 13 12  1  0
M  END
>  <ID>  (1) 
conformer_0

$$$$
