
     RDKit          3D

  9  8  0  0  0  0  0  0  0  0999 V2000
   61.9997   49.9273  109.8700 C   0  0  0  0  0  0  0  0  0  0  0  0
   62.6717   51.7838  109.6817 C   0  0  0  0  0  0  0  0  0  0  0  0
   63.7503   53.6687  109.7076 C   0  0  0  0  0  0  0  0  0  0  0  0
   63.1807   50.2223  110.8460 C   0  0  0  0  0  0  0  0  0  0  0  0
   62.9897   53.6226  108.2261 O   0  0  0  0  0  0  0  0  0  0  0  0
   63.0373   52.5160  109.7705 N   0  0  0  0  0  0  0  0  0  0  0  0
   63.6639   55.4211  110.6102 C   0  0  0  0  0  0  0  0  0  0  0  0
   63.7502   55.9296  110.2572 C   0  0  0  0  0  0  0  0  0  0  0  0
   64.4399   57.4262  110.4389 O   0  0  0  0  0  0  0  0  0  0  0  0
  2  1  1  0
  4  1  1  0
  5  3  1  0
  6  2  1  0
  6  3  1  0
  7  3  1  0
  8  7  1  0
  9  8  1  0
M  END
>  <ID>  (1) 
conformer_0

$$$$
