
     RDKit          3D

  9  9  0  0  0  0  0  0  0  0999 V2000
   63.5829   53.5156  109.5001 C   0  0  0  0  0  0  0  0  0  0  0  0
   63.0499   49.9695  110.8453 C   0  0  0  0  0  0  0  0  0  0  0  0
   62.6651   51.6198  110.0119 C   0  0  0  0  0  0  0  0  0  0  0  0
   64.0696   55.0091  111.2262 C   0  0  0  0  0  0  0  0  0  0  0  0
   62.0250   53.7244  108.5955 O   0  0  0  0  0  0  0  0  0  0  0  0
   63.0171   52.2687  109.9238 N   0  0  0  0  0  0  0  0  0  0  0  0
   65.2603   54.6858  109.3177 N   0  0  0  0  0  0  0  0  0  0  0  0
   61.8587   50.1050  109.5741 C   0  0  0  0  0  0  0  0  0  0  0  0
   63.6254   55.2516  110.0066 C   0  0  0  0  0  0  0  0  0  0  0  0
  3  2  1  0
  5  1  1  0
  6  1  1  0
  6  3  1  0
  8  2  1  0
  8  3  1  0
  9  1  1  0
  9  4  1  0
  9  7  1  0
M  END
>  <ID>  (1) 
conformer_0

$$$$
