
     RDKit          3D

 12 12  0  0  0  0  0  0  0  0999 V2000
   63.2718   50.5859  110.9388 C   0  0  0  0  0  0  0  0  0  0  0  0
   63.3245   53.8513  109.0605 C   0  0  0  0  0  0  0  0  0  0  0  0
   64.5932   54.4723  110.0473 C   0  0  0  0  0  0  0  0  0  0  0  0
   63.0274   52.7353  109.8236 N   0  0  0  0  0  0  0  0  0  0  0  0
   62.6319   49.4870  110.5534 C   0  0  0  0  0  0  0  0  0  0  0  0
   64.2217   55.7927  111.1492 C   0  0  0  0  0  0  0  0  0  0  0  0
   63.1031   54.4492  108.5156 O   0  0  0  0  0  0  0  0  0  0  0  0
   65.0718   55.2122  109.3067 N   0  0  0  0  0  0  0  0  0  0  0  0
   63.6464   56.3625  110.2878 C   0  0  0  0  0  0  0  0  0  0  0  0
   63.2990   52.0210  110.7734 C   0  0  0  0  0  0  0  0  0  0  0  0
   61.8819   50.0945  109.3273 C   0  0  0  0  0  0  0  0  0  0  0  0
   62.1175   51.8636  109.0909 C   0  0  0  0  0  0  0  0  0  0  0  0
  3  2  1  0
  4  2  1  0
  5  1  1  0
  6  3  1  0
  7  2  2  0
  8  3  1  0
  9  6  1  0
 10  1  1  0
 10  4  1  0
 11  5  1  0
 12  4  1  0
 12 11  2  0
M  END
>  <ID>  (1) 
conformer_0

$$$$
