
     RDKit          3D

 13 14  0  0  0  0  0  0  0  0999 V2000
   62.2524   49.5865  110.9750 C   0  0  0  0  0  0  0  0  0  0  0  0
   64.0394   53.5766  109.9878 C   0  0  0  0  0  0  0  0  0  0  0  0
   64.0613   55.3004  110.6530 C   0  0  0  0  0  0  0  0  0  0  0  0
   62.2958   52.4540  109.3163 C   0  0  0  0  0  0  0  0  0  0  0  0
   65.3631   55.3945  108.6177 N   0  0  0  0  0  0  0  0  0  0  0  0
   63.1795   52.5756  110.0539 N   0  0  0  0  0  0  0  0  0  0  0  0
   61.9402   53.9540  108.9683 O   0  0  0  0  0  0  0  0  0  0  0  0
   63.5113   50.0905  110.9843 C   0  0  0  0  0  0  0  0  0  0  0  0
   64.5469   55.0557  108.9271 C   0  0  0  0  0  0  0  0  0  0  0  0
   62.0782   55.9814  110.0552 N   0  0  0  0  0  0  0  0  0  0  0  0
   62.9922   55.9869  110.0602 C   0  0  0  0  0  0  0  0  0  0  0  0
   63.2515   51.4316  110.6228 C   0  0  0  0  0  0  0  0  0  0  0  0
   61.9636   50.4548  109.6751 C   0  0  0  0  0  0  0  0  0  0  0  0
  3  2  1  0
  6  2  1  0
  6  4  1  0
  7  4  1  0
  8  1  1  0
  9  2  1  0
  9  3  1  0
  9  5  1  0
 11  3  1  0
 11 10  1  0
 12  6  1  0
 12  8  1  0
 13  1  1  0
 13 12  1  0
M  END
>  <ID>  (1) 
conformer_0

$$$$
