
     RDKit          3D

 12 11  0  0  0  0  0  0  0  0999 V2000
   62.6245   49.4465  110.8139 C   0  0  0  0  0  0  0  0  0  0  0  0
   63.0699   51.8411  110.6095 C   0  0  0  0  0  0  0  0  0  0  0  0
   64.4089   54.6711  109.9776 C   0  0  2  0  0  0  0  0  0  0  0  0
   62.0249   53.8645  108.5918 O   0  0  0  0  0  0  0  0  0  0  0  0
   63.1519   50.4702  110.8866 C   0  0  0  0  0  0  0  0  0  0  0  0
   62.9859   52.5310  109.7038 N   0  0  0  0  0  0  0  0  0  0  0  0
   63.7186   56.5906  110.7512 C   0  0  0  0  0  0  0  0  0  0  0  0
   64.1274   55.2947  111.0689 C   0  0  0  0  0  0  0  0  0  0  0  0
   65.0685   55.5471  109.6525 N   0  0  0  0  0  0  0  0  0  0  0  0
   63.4343   53.7382  109.0633 C   0  0  2  0  0  0  0  0  0  0  0  0
   62.0446   52.0049  108.8090 C   0  0  0  0  0  0  0  0  0  0  0  0
   61.7583   50.4092  109.2556 C   0  0  0  0  0  0  0  0  0  0  0  0
  5  1  2  3
  5  2  1  0
  6  2  1  0
  8  3  1  0
  8  7  1  0
  3  9  1  6
 10  3  1  0
 10  4  1  1
 10  6  1  0
 11  6  1  0
 12 11  1  0
M  END
>  <ID>  (1) 
conformer_0

$$$$
