
     RDKit          3D

  8  7  0  0  0  0  0  0  0  0999 V2000
   63.3307   50.3819  110.7157 C   0  0  0  0  0  0  0  0  0  0  0  0
   62.4648   51.9687  109.9183 C   0  0  0  0  0  0  0  0  0  0  0  0
   63.8127   53.8084  109.4179 C   0  0  0  0  0  0  0  0  0  0  0  0
   64.1752   55.5773  111.2763 C   0  0  0  0  0  0  0  0  0  0  0  0
   62.0291   49.9684  110.0187 C   0  0  0  0  0  0  0  0  0  0  0  0
   65.2317   55.0873  109.2315 N   0  0  0  0  0  0  0  0  0  0  0  0
   64.0330   55.8711  110.1984 C   0  0  0  0  0  0  0  0  0  0  0  0
   62.7389   52.4725  109.8713 N   0  0  0  0  0  0  0  0  0  0  0  0
  2  1  1  0
  5  1  1  0
  6  3  1  0
  7  4  1  0
  7  6  1  0
  8  2  1  0
  8  3  1  0
M  END
>  <ID>  (1) 
conformer_0

$$$$
