
     RDKit          3D

 16 15  0  0  0  0  0  0  0  0999 V2000
   13.0733   56.7336   81.0841 C   0  0  0  0  0  0  0  0  0  0  0  0
   13.5966   58.5692   79.2537 C   0  0  0  0  0  0  0  0  0  0  0  0
    9.5726   58.8053   81.2348 C   0  0  0  0  0  0  0  0  0  0  0  0
    9.3943   57.4207   79.4856 C   0  0  0  0  0  0  0  0  0  0  0  0
    9.7685   57.6322   82.0976 O   0  0  0  0  0  0  0  0  0  0  0  0
   15.1050   56.2299   83.2811 O   0  0  0  0  0  0  0  0  0  0  0  0
   14.3869   57.3808   80.7762 C   0  0  0  0  0  0  0  0  0  0  0  0
   11.6556   59.1783   79.3161 O   0  0  0  0  0  0  0  0  0  0  0  0
   14.5881   58.2821   80.0711 O   0  0  0  0  0  0  0  0  0  0  0  0
   10.6518   59.6018   82.1441 O   0  0  0  0  0  0  0  0  0  0  0  0
   16.4100   57.3267   81.7068 O   0  0  0  0  0  0  0  0  0  0  0  0
   14.8758   56.0761   81.9900 C   0  0  0  0  0  0  0  0  0  0  0  0
   15.9881   57.0074   80.6327 C   0  0  0  0  0  0  0  0  0  0  0  0
   13.0189   55.8516   82.3478 O   0  0  0  0  0  0  0  0  0  0  0  0
   12.2190   58.7384   80.1458 C   0  0  0  0  0  0  0  0  0  0  0  0
   10.5424   57.9223   80.1040 C   0  0  0  0  0  0  0  0  0  0  0  0
  5  3  1  0
  7  1  1  0
  9  2  1  0
  9  7  1  0
 10  3  1  0
 12  6  1  0
 12  7  1  0
 13  7  1  0
 13 11  1  0
 14  1  1  0
 15  2  1  0
 15  8  1  0
 16  3  1  0
 16  4  1  0
 16 15  1  0
M  END
>  <ID>  (1) 
conformer_0

$$$$
