
     RDKit          3D

 15 14  0  0  0  0  0  0  0  0999 V2000
   12.7362   58.4464   80.1731 C   0  0  0  0  0  0  0  0  0  0  0  0
    9.9516   59.1390   80.9166 C   0  0  0  0  0  0  0  0  0  0  0  0
   14.5602   58.1835   79.9404 C   0  0  0  0  0  0  0  0  0  0  0  0
    9.4412   57.5921   79.5367 C   0  0  0  0  0  0  0  0  0  0  0  0
   10.9523   59.7307   82.0297 O   0  0  0  0  0  0  0  0  0  0  0  0
   16.5603   57.6170   81.0845 O   0  0  0  0  0  0  0  0  0  0  0  0
   10.8488   56.5776   80.8751 O   0  0  0  0  0  0  0  0  0  0  0  0
   10.6806   57.7002   80.6618 C   0  0  0  0  0  0  0  0  0  0  0  0
    9.0747   58.3291   81.6088 O   0  0  0  0  0  0  0  0  0  0  0  0
   12.8227   55.8175   82.6883 O   0  0  0  0  0  0  0  0  0  0  0  0
   12.4062   58.6564   79.4696 O   0  0  0  0  0  0  0  0  0  0  0  0
   12.6546   56.8609   81.1239 C   0  0  0  0  0  0  0  0  0  0  0  0
   15.0785   56.6297   82.8098 O   0  0  0  0  0  0  0  0  0  0  0  0
   14.1111   56.5208   81.5183 C   0  0  0  0  0  0  0  0  0  0  0  0
   15.4422   56.8488   81.2765 C   0  0  0  0  0  0  0  0  0  0  0  0
  3  1  1  0
  5  2  1  0
  8  2  1  0
  8  4  1  0
  8  7  1  0
  9  2  1  0
 11  1  1  0
 12  1  1  0
 12  7  1  0
 14 10  1  0
 14 12  1  0
 15  6  1  0
 15 13  1  0
 15 14  1  0
M  END
>  <ID>  (1) 
conformer_0

$$$$
