
     RDKit          3D

 15 15  0  0  0  0  0  0  0  0999 V2000
   15.2342   57.6546   80.3201 C   0  0  0  0  0  0  0  0  0  0  0  0
   10.1916   58.7767   81.1952 C   0  0  0  0  0  0  0  0  0  0  0  0
   13.5930   58.5557   79.5643 C   0  0  0  0  0  0  0  0  0  0  0  0
    9.3240   57.6727   79.5689 C   0  0  0  0  0  0  0  0  0  0  0  0
   16.7070   57.4095   80.8629 O   0  0  0  0  0  0  0  0  0  0  0  0
   11.0862   59.8499   82.2822 O   0  0  0  0  0  0  0  0  0  0  0  0
   11.0586   57.9695   80.4023 C   0  0  0  0  0  0  0  0  0  0  0  0
   14.8377   58.5286   79.5408 O   0  0  0  0  0  0  0  0  0  0  0  0
   11.8066   58.7887   79.4938 O   0  0  0  0  0  0  0  0  0  0  0  0
   12.7447   55.5461   82.8186 O   0  0  0  0  0  0  0  0  0  0  0  0
   14.9514   56.3867   81.5494 C   0  0  0  0  0  0  0  0  0  0  0  0
   15.0427   56.6424   82.7817 O   0  0  0  0  0  0  0  0  0  0  0  0
   11.0617   57.4218   81.1168 O   0  0  0  0  0  0  0  0  0  0  0  0
   12.9444   57.6006   80.8211 C   0  0  0  0  0  0  0  0  0  0  0  0
   13.3650   56.2958   81.5486 C   0  0  0  0  0  0  0  0  0  0  0  0
  5  1  1  0
  6  2  1  0
  7  2  1  0
  7  4  1  0
  8  1  1  0
  8  3  1  0
  9  3  1  0
  9  7  1  0
 11  1  1  0
 12 11  1  0
 13  7  1  0
 14  3  1  0
 15 10  1  0
 15 11  1  0
 15 14  1  0
M  END
>  <ID>  (1) 
conformer_0

$$$$
