
     RDKit          3D

 16 15  0  0  0  0  0  0  0  0999 V2000
   14.3436   56.2779   81.6025 C   0  0  0  0  0  0  0  0  0  0  0  0
   12.3432   58.4037   79.8423 C   0  0  0  0  0  0  0  0  0  0  0  0
   11.5061   57.8313   81.1776 C   0  0  0  0  0  0  0  0  0  0  0  0
   14.6472   58.4304   79.8483 O   0  0  0  0  0  0  0  0  0  0  0  0
    8.9926   58.0367   81.7226 O   0  0  0  0  0  0  0  0  0  0  0  0
   16.6329   57.4478   81.0639 O   0  0  0  0  0  0  0  0  0  0  0  0
   13.0927   56.8786   81.1784 C   0  0  0  0  0  0  0  0  0  0  0  0
   12.9811   55.8297   82.7728 O   0  0  0  0  0  0  0  0  0  0  0  0
   12.1986   59.0570   79.3667 O   0  0  0  0  0  0  0  0  0  0  0  0
    9.3710   57.4351   79.3759 C   0  0  0  0  0  0  0  0  0  0  0  0
   11.2319   58.9607   82.3280 O   0  0  0  0  0  0  0  0  0  0  0  0
    9.5546   58.3071   81.2006 C   0  0  0  0  0  0  0  0  0  0  0  0
   10.8087   57.0941   81.1024 O   0  0  0  0  0  0  0  0  0  0  0  0
   15.0509   56.7879   82.8061 O   0  0  0  0  0  0  0  0  0  0  0  0
   15.5344   56.9309   80.8046 C   0  0  0  0  0  0  0  0  0  0  0  0
   14.2737   58.2837   79.9603 C   0  0  0  0  0  0  0  0  0  0  0  0
  3  2  1  0
  7  1  1  0
  7  3  1  0
  8  1  1  0
  9  2  2  0
 11  3  1  0
 12  5  1  0
 12 10  1  0
 13  3  1  0
 13 12  1  0
 14  1  1  0
 15  1  1  0
 15  6  1  0
 16  2  1  0
 16  4  2  0
M  END
>  <ID>  (1) 
conformer_0

$$$$
