
     RDKit          3D

 16 15  0  0  0  0  0  0  0  0999 V2000
   12.7928   56.9819   80.9665 C   0  0  0  0  0  0  0  0  0  0  0  0
    9.6724   58.1358   80.8671 C   0  0  0  0  0  0  0  0  0  0  0  0
   10.3231   59.4560   80.7950 C   0  0  0  0  0  0  0  0  0  0  0  0
   13.7320   55.9867   81.4872 C   0  0  0  0  0  0  0  0  0  0  0  0
    9.0243   57.7450   81.8840 O   0  0  0  0  0  0  0  0  0  0  0  0
   16.7366   57.5285   80.8376 O   0  0  0  0  0  0  0  0  0  0  0  0
   10.6745   59.8216   82.1870 O   0  0  0  0  0  0  0  0  0  0  0  0
    9.2911   57.7749   79.4647 C   0  0  0  0  0  0  0  0  0  0  0  0
   11.5927   58.9274   79.7321 O   0  0  0  0  0  0  0  0  0  0  0  0
   12.4496   55.6306   82.6727 O   0  0  0  0  0  0  0  0  0  0  0  0
   14.4226   58.8653   80.2861 O   0  0  0  0  0  0  0  0  0  0  0  0
   11.8660   58.4414   79.8223 C   0  0  0  0  0  0  0  0  0  0  0  0
   15.0049   56.4341   82.7203 O   0  0  0  0  0  0  0  0  0  0  0  0
   13.8198   58.4674   79.8200 C   0  0  0  0  0  0  0  0  0  0  0  0
   15.3831   56.4049   81.4098 C   0  0  0  0  0  0  0  0  0  0  0  0
   15.3057   57.5813   80.4275 C   0  0  0  0  0  0  0  0  0  0  0  0
  3  2  1  0
  4  1  1  0
  5  2  2  0
  7  3  1  0
  8  2  1  0
  9  3  1  0
 10  4  1  0
 12  9  1  0
 14 11  1  0
 14 12  1  0
 15  4  1  0
 15 13  1  0
 16  6  1  0
 16 11  1  0
 16 15  1  0
M  END
>  <ID>  (1) 
conformer_0

$$$$
