
     RDKit          3D

 17 18  0  0  0  0  0  0  0  0999 V2000
   13.3174   56.7106   80.7860 C   0  0  0  0  0  0  0  0  0  0  0  0
   12.0460   57.5871   80.9570 C   0  0  0  0  0  0  0  0  0  0  0  0
   10.6307   58.5479   80.0723 C   0  0  0  0  0  0  0  0  0  0  0  0
    9.2141   57.6273   79.1284 C   0  0  0  0  0  0  0  0  0  0  0  0
   16.8870   57.3084   80.6237 O   0  0  0  0  0  0  0  0  0  0  0  0
   14.5443   58.3825   79.9107 O   0  0  0  0  0  0  0  0  0  0  0  0
    9.3351   57.7892   82.1977 O   0  0  0  0  0  0  0  0  0  0  0  0
    9.6224   58.5420   81.3776 C   0  0  0  0  0  0  0  0  0  0  0  0
   10.0220   59.9291   81.9233 O   0  0  0  0  0  0  0  0  0  0  0  0
   13.0111   55.4359   82.2743 O   0  0  0  0  0  0  0  0  0  0  0  0
   11.6641   58.8639   79.4159 O   0  0  0  0  0  0  0  0  0  0  0  0
   12.9158   58.8032   79.8314 C   0  0  0  0  0  0  0  0  0  0  0  0
   14.9272   56.4803   82.9775 O   0  0  0  0  0  0  0  0  0  0  0  0
   14.9269   58.0666   80.1389 C   0  0  0  0  0  0  0  0  0  0  0  0
   10.9003   57.1208   81.1313 O   0  0  0  0  0  0  0  0  0  0  0  0
   14.4331   56.2444   81.7717 C   0  0  0  0  0  0  0  0  0  0  0  0
   15.7759   56.6719   81.0878 C   0  0  0  0  0  0  0  0  0  0  0  0
  2  1  1  0
  8  3  1  0
  8  4  1  0
  8  7  1  0
  9  8  1  0
 11  3  1  0
 12  2  1  0
 12  6  1  0
 12 11  1  0
 14  6  1  0
 15  2  1  0
 15  3  1  0
 16  1  1  0
 16 10  1  0
 16 13  1  0
 17  5  1  0
 17 14  1  0
 17 16  1  0
M  END
>  <ID>  (1) 
conformer_0

$$$$
