
     RDKit          3D

 15 15  0  0  0  0  0  0  0  0999 V2000
   14.3864   57.8981   80.1467 C   0  0  0  0  0  0  0  0  0  0  0  0
   12.6833   58.3949   80.3839 C   0  0  0  0  0  0  0  0  0  0  0  0
   10.9063   57.8666   80.4388 C   0  0  0  0  0  0  0  0  0  0  0  0
    9.8123   57.4139   79.3471 C   0  0  0  0  0  0  0  0  0  0  0  0
    9.3068   58.7596   81.4716 O   0  0  0  0  0  0  0  0  0  0  0  0
   12.9060   56.5644   81.0784 C   0  0  0  0  0  0  0  0  0  0  0  0
   11.0598   59.9232   82.3266 O   0  0  0  0  0  0  0  0  0  0  0  0
   13.7505   55.8839   82.8132 O   0  0  0  0  0  0  0  0  0  0  0  0
   16.6825   57.5984   80.6817 O   0  0  0  0  0  0  0  0  0  0  0  0
   11.1927   56.7511   81.1001 O   0  0  0  0  0  0  0  0  0  0  0  0
   14.6407   57.8662   79.8028 O   0  0  0  0  0  0  0  0  0  0  0  0
   12.0976   58.8058   79.4922 O   0  0  0  0  0  0  0  0  0  0  0  0
   10.1748   59.4426   81.2928 C   0  0  0  0  0  0  0  0  0  0  0  0
   14.3773   56.2327   81.6323 C   0  0  0  0  0  0  0  0  0  0  0  0
   15.8039   56.8699   81.0141 C   0  0  0  0  0  0  0  0  0  0  0  0
  2  1  1  0
  3  2  1  0
  4  3  1  0
 10  3  1  0
 10  6  1  0
 11  1  2  0
 12  2  1  0
 13  4  1  0
 13  5  1  0
 13  7  1  0
 14  6  1  0
 14  8  1  0
 15  1  1  0
 15  9  1  0
 15 14  1  0
M  END
>  <ID>  (1) 
conformer_0

$$$$
