
     RDKit          3D

 16 16  0  0  0  0  0  0  0  0999 V2000
   14.3665   56.1971   81.6504 C   0  0  0  0  0  0  0  0  0  0  0  0
   10.6494   58.1915   80.7737 C   0  0  0  0  0  0  0  0  0  0  0  0
    9.8832   59.2056   81.2473 C   0  0  0  0  0  0  0  0  0  0  0  0
   12.7814   56.7292   81.2518 C   0  0  0  0  0  0  0  0  0  0  0  0
   10.7804   59.9217   82.2873 O   0  0  0  0  0  0  0  0  0  0  0  0
   16.8027   57.1481   80.8885 O   0  0  0  0  0  0  0  0  0  0  0  0
    9.3940   57.1040   79.2894 C   0  0  0  0  0  0  0  0  0  0  0  0
   11.4613   56.7887   81.4408 O   0  0  0  0  0  0  0  0  0  0  0  0
   13.0418   55.3039   82.3793 O   0  0  0  0  0  0  0  0  0  0  0  0
   14.7388   57.8783   79.4799 O   0  0  0  0  0  0  0  0  0  0  0  0
   12.3218   58.4964   80.2025 C   0  0  0  0  0  0  0  0  0  0  0  0
    9.3819   57.7448   81.5490 O   0  0  0  0  0  0  0  0  0  0  0  0
   15.2096   56.6633   82.7578 O   0  0  0  0  0  0  0  0  0  0  0  0
   11.5195   58.4241   79.5527 O   0  0  0  0  0  0  0  0  0  0  0  0
   14.1040   58.0131   80.1166 C   0  0  0  0  0  0  0  0  0  0  0  0
   15.5131   56.9449   80.7461 C   0  0  0  0  0  0  0  0  0  0  0  0
  3  2  1  0
  4  1  1  0
  5  3  1  0
  7  3  1  0
  8  4  1  0
  9  1  1  0
 12  2  1  0
 12  3  1  0
 13  1  1  0
 14  2  1  0
 14 11  1  0
 15 10  1  0
 15 11  1  0
 16  1  1  0
 16  6  1  0
 16 10  1  0
M  END
>  <ID>  (1) 
conformer_0

$$$$
