
     RDKit          3D

 14 13  0  0  0  0  0  0  0  0999 V2000
   14.0244   56.3428   81.5395 C   0  0  0  0  0  0  0  0  0  0  0  0
   14.8264   57.7610   80.3014 C   0  0  0  0  0  0  0  0  0  0  0  0
    9.4209   57.4084   79.3930 C   0  0  0  0  0  0  0  0  0  0  0  0
    9.9407   57.8368   80.8599 C   0  0  0  0  0  0  0  0  0  0  0  0
    9.3827   57.8004   81.6479 O   0  0  0  0  0  0  0  0  0  0  0  0
   16.6918   57.4780   80.7196 O   0  0  0  0  0  0  0  0  0  0  0  0
   10.8935   59.5251   82.4313 O   0  0  0  0  0  0  0  0  0  0  0  0
   12.9712   58.8809   79.5210 O   0  0  0  0  0  0  0  0  0  0  0  0
   12.8911   55.5076   82.3990 O   0  0  0  0  0  0  0  0  0  0  0  0
   12.6762   57.0656   81.0518 C   0  0  0  0  0  0  0  0  0  0  0  0
   15.4657   56.5991   81.3108 C   0  0  0  0  0  0  0  0  0  0  0  0
   14.8512   56.7513   82.7749 O   0  0  0  0  0  0  0  0  0  0  0  0
   12.9172   58.4076   80.0634 C   0  0  0  0  0  0  0  0  0  0  0  0
   11.1183   59.1086   80.6882 C   0  0  0  0  0  0  0  0  0  0  0  0
  4  3  1  0
  5  4  2  0
  9  1  1  0
 10  1  1  0
 11  1  1  0
 11  2  1  0
 11  6  1  0
 12  1  1  0
 13  8  2  0
 13 10  1  0
 14  4  1  0
 14  7  1  0
 14 13  1  0
M  END
>  <ID>  (1) 
conformer_0

$$$$
