
     RDKit          3D

 12 11  0  0  0  0  0  0  0  0999 V2000
   12.2537   58.0431   80.4225 C   0  0  0  0  0  0  0  0  0  0  0  0
   13.9226   56.7618   81.4266 C   0  0  0  0  0  0  0  0  0  0  0  0
   10.2344   58.3806   80.7379 C   0  0  0  0  0  0  0  0  0  0  0  0
    9.5718   57.3526   79.5451 C   0  0  0  0  0  0  0  0  0  0  0  0
    9.1559   57.9655   81.8513 O   0  0  0  0  0  0  0  0  0  0  0  0
   14.8828   58.5606   80.0443 O   0  0  0  0  0  0  0  0  0  0  0  0
   13.6829   55.7198   82.7684 O   0  0  0  0  0  0  0  0  0  0  0  0
   16.3494   57.3211   81.7794 O   0  0  0  0  0  0  0  0  0  0  0  0
   15.1064   56.5544   81.5951 C   0  0  0  0  0  0  0  0  0  0  0  0
   14.2755   58.2545   80.0914 C   0  0  0  0  0  0  0  0  0  0  0  0
   12.0054   59.1078   79.6279 O   0  0  0  0  0  0  0  0  0  0  0  0
   11.2628   57.1472   81.2555 O   0  0  0  0  0  0  0  0  0  0  0  0
  4  3  1  0
  5  3  1  0
  7  2  1  0
  9  2  1  0
  9  8  1  0
 10  1  1  0
 10  2  1  0
 10  6  2  0
 11  1  2  0
 12  1  1  0
 12  3  1  0
M  END
>  <ID>  (1) 
conformer_0

$$$$
