
     RDKit          3D

 13 13  0  0  0  0  0  0  0  0999 V2000
   13.9616   56.4664   81.4216 C   0  0  0  0  0  0  0  0  0  0  0  0
   15.3907   56.7500   80.9763 C   0  0  0  0  0  0  0  0  0  0  0  0
    9.6069   57.8325   79.3699 C   0  0  0  0  0  0  0  0  0  0  0  0
   13.3989   58.5719   80.0296 C   0  0  0  0  0  0  0  0  0  0  0  0
    9.1893   58.1306   81.7731 O   0  0  0  0  0  0  0  0  0  0  0  0
   12.5079   57.5570   80.7929 C   0  0  0  0  0  0  0  0  0  0  0  0
   13.7910   55.7295   82.7058 O   0  0  0  0  0  0  0  0  0  0  0  0
   14.9114   57.6468   79.9092 O   0  0  0  0  0  0  0  0  0  0  0  0
   11.5672   59.1320   79.6624 O   0  0  0  0  0  0  0  0  0  0  0  0
   16.2982   57.1616   81.7832 O   0  0  0  0  0  0  0  0  0  0  0  0
   10.7938   59.8096   82.3682 O   0  0  0  0  0  0  0  0  0  0  0  0
   10.1412   58.5476   80.8003 C   0  0  0  0  0  0  0  0  0  0  0  0
   11.2256   57.4205   81.4201 O   0  0  0  0  0  0  0  0  0  0  0  0
  2  1  1  0
  6  1  1  0
  6  4  1  0
  7  1  1  0
  8  2  1  0
  8  4  1  0
  9  4  1  0
 10  2  1  0
 12  3  1  0
 12  5  1  0
 12 11  1  0
 13  6  1  0
 13 12  1  0
M  END
>  <ID>  (1) 
conformer_0

$$$$
