
     RDKit          3D

 12 11  0  0  0  0  0  0  0  0999 V2000
   15.4694   57.0870   80.6822 C   0  0  0  0  0  0  0  0  0  0  0  0
   13.9518   56.4021   81.3021 C   0  0  0  0  0  0  0  0  0  0  0  0
   13.6151   57.9442   80.2972 C   0  0  0  0  0  0  0  0  0  0  0  0
    8.9933   57.9941   81.9232 O   0  0  0  0  0  0  0  0  0  0  0  0
   16.8243   57.1724   80.4214 O   0  0  0  0  0  0  0  0  0  0  0  0
   12.0103   58.1547   80.1857 C   0  0  0  0  0  0  0  0  0  0  0  0
   10.0197   57.2123   79.6421 C   0  0  0  0  0  0  0  0  0  0  0  0
   11.3793   58.9052   79.6323 O   0  0  0  0  0  0  0  0  0  0  0  0
   10.7023   59.3829   82.2767 O   0  0  0  0  0  0  0  0  0  0  0  0
   13.4518   56.4036   82.6919 O   0  0  0  0  0  0  0  0  0  0  0  0
   14.1935   58.2163   79.7321 O   0  0  0  0  0  0  0  0  0  0  0  0
   10.0590   58.7774   81.0688 C   0  0  0  0  0  0  0  0  0  0  0  0
  2  1  1  0
  3  2  1  0
  5  1  1  0
  6  3  1  0
  8  6  1  0
 10  2  1  0
 11  3  2  0
 12  4  1  0
 12  7  1  0
 12  8  1  0
 12  9  1  0
M  END
>  <ID>  (1) 
conformer_0

$$$$
