
     RDKit          3D

 15 14  0  0  0  0  0  0  0  0999 V2000
   14.9937   56.2157   81.7093 C   0  0  0  0  0  0  0  0  0  0  0  0
   13.9412   58.2942   80.0334 C   0  0  0  0  0  0  0  0  0  0  0  0
   12.3116   57.7798   80.4489 C   0  0  0  0  0  0  0  0  0  0  0  0
   15.9063   57.2626   80.3753 C   0  0  0  0  0  0  0  0  0  0  0  0
    9.1969   58.5246   81.3200 O   0  0  0  0  0  0  0  0  0  0  0  0
   16.6420   57.2770   81.3930 O   0  0  0  0  0  0  0  0  0  0  0  0
   11.3323   59.9990   81.7284 O   0  0  0  0  0  0  0  0  0  0  0  0
    9.4791   57.4453   79.4072 C   0  0  0  0  0  0  0  0  0  0  0  0
   13.3383   55.5758   82.6097 O   0  0  0  0  0  0  0  0  0  0  0  0
   12.0770   58.9372   79.4162 O   0  0  0  0  0  0  0  0  0  0  0  0
   14.4530   57.9468   79.8849 O   0  0  0  0  0  0  0  0  0  0  0  0
    9.8869   58.0152   80.8866 C   0  0  0  0  0  0  0  0  0  0  0  0
   13.6140   56.5694   81.4609 C   0  0  0  0  0  0  0  0  0  0  0  0
   11.3447   56.5141   82.6031 O   0  0  0  0  0  0  0  0  0  0  0  0
   11.3124   59.1529   80.3452 C   0  0  0  0  0  0  0  0  0  0  0  0
  3  2  1  0
  4  1  1  0
  6  4  1  0
 10  3  1  0
 11  2  1  0
 11  4  1  0
 12  5  1  0
 12  8  1  0
 13  1  1  0
 13  9  1  0
 14  9  1  0
 15  7  1  0
 15 10  1  0
 15 12  1  0
M  END
>  <ID>  (1) 
conformer_0

$$$$
