
     RDKit          3D

 15 14  0  0  0  0  0  0  0  0999 V2000
   10.9676   59.1809   80.7456 C   0  0  0  0  0  0  0  0  0  0  0  0
    9.7344   58.5380   81.0596 C   0  0  0  0  0  0  0  0  0  0  0  0
    9.6977   57.6530   79.5542 C   0  0  0  0  0  0  0  0  0  0  0  0
   14.5566   56.2076   81.6934 C   0  0  0  0  0  0  0  0  0  0  0  0
    9.1212   58.0849   81.8198 O   0  0  0  0  0  0  0  0  0  0  0  0
   10.8465   59.9149   82.2016 O   0  0  0  0  0  0  0  0  0  0  0  0
   13.1065   56.5956   81.1481 C   0  0  0  0  0  0  0  0  0  0  0  0
   16.7910   57.7616   80.8992 O   0  0  0  0  0  0  0  0  0  0  0  0
   13.3552   55.4260   82.5164 O   0  0  0  0  0  0  0  0  0  0  0  0
   12.1175   58.6522   79.6147 O   0  0  0  0  0  0  0  0  0  0  0  0
   15.5628   56.7506   82.7552 O   0  0  0  0  0  0  0  0  0  0  0  0
   12.3631   58.4322   80.2665 C   0  0  0  0  0  0  0  0  0  0  0  0
   14.2722   57.7395   79.7012 O   0  0  0  0  0  0  0  0  0  0  0  0
   14.3631   57.9944   80.3410 C   0  0  0  0  0  0  0  0  0  0  0  0
   15.7555   56.9075   81.0857 C   0  0  0  0  0  0  0  0  0  0  0  0
  2  1  1  0
  3  2  1  0
  5  2  2  0
  6  1  1  0
  7  4  1  0
  9  4  1  0
 11  4  1  0
 12  1  1  0
 12 10  2  0
 14 12  1  0
 14 13  1  0
 15  4  1  0
 15  8  1  0
 15 14  1  0
M  END
>  <ID>  (1) 
conformer_0

$$$$
