
     RDKit          3D

 14 15  0  0  0  0  0  0  0  0999 V2000
   14.9371   57.6456   80.3988 C   0  0  0  0  0  0  0  0  0  0  0  0
   15.4368   56.4139   81.7997 C   0  0  0  0  0  0  0  0  0  0  0  0
   11.1678   58.2625   80.1493 C   0  0  0  0  0  0  0  0  0  0  0  0
    9.3376   57.9219   81.8410 O   0  0  0  0  0  0  0  0  0  0  0  0
   11.4968   59.0618   79.5699 O   0  0  0  0  0  0  0  0  0  0  0  0
   14.8761   58.1465   80.2681 O   0  0  0  0  0  0  0  0  0  0  0  0
    9.5262   57.7017   79.4431 C   0  0  0  0  0  0  0  0  0  0  0  0
   14.7998   56.3439   83.1867 O   0  0  0  0  0  0  0  0  0  0  0  0
    9.7025   58.3986   81.0715 C   0  0  0  0  0  0  0  0  0  0  0  0
   12.4342   56.0156   82.4453 O   0  0  0  0  0  0  0  0  0  0  0  0
   13.8535   56.3250   81.5039 C   0  0  0  0  0  0  0  0  0  0  0  0
   16.4273   57.3444   81.8743 O   0  0  0  0  0  0  0  0  0  0  0  0
   12.6664   57.5036   80.7873 C   0  0  0  0  0  0  0  0  0  0  0  0
   13.3998   58.7968   79.6625 C   0  0  0  0  0  0  0  0  0  0  0  0
  2  1  1  0
  5  3  1  0
  6  1  1  0
  7  3  1  0
  8  2  1  0
  9  3  1  0
  9  4  1  0
  9  7  1  0
 11  2  1  0
 11 10  1  0
 12  2  1  0
 13  3  1  0
 13 11  1  0
 14  6  1  0
 14 13  1  0
M  END
>  <ID>  (1) 
conformer_0

$$$$
