
     RDKit          3D

 17 17  0  0  0  0  0  0  0  0999 V2000
   12.9649   57.3102   80.7147 C   0  0  0  0  0  0  0  0  0  0  0  0
   13.8748   56.1747   81.7559 C   0  0  0  0  0  0  0  0  0  0  0  0
    8.9849   58.0461   79.5496 C   0  0  0  0  0  0  0  0  0  0  0  0
   13.0742   58.4418   79.7291 C   0  0  0  0  0  0  0  0  0  0  0  0
   11.3521   56.9492   80.8909 O   0  0  0  0  0  0  0  0  0  0  0  0
   10.3098   57.7113   80.3720 C   0  0  0  0  0  0  0  0  0  0  0  0
   16.4846   57.6121   80.7466 O   0  0  0  0  0  0  0  0  0  0  0  0
   10.6122   60.2218   81.9289 O   0  0  0  0  0  0  0  0  0  0  0  0
   15.3713   56.9154   83.1366 O   0  0  0  0  0  0  0  0  0  0  0  0
   13.0603   55.5622   82.9578 O   0  0  0  0  0  0  0  0  0  0  0  0
    9.4562   57.8508   81.7284 O   0  0  0  0  0  0  0  0  0  0  0  0
   15.2805   56.3187   82.1254 C   0  0  0  0  0  0  0  0  0  0  0  0
   14.2069   58.2161   79.6879 O   0  0  0  0  0  0  0  0  0  0  0  0
   14.9299   57.3830   80.5828 C   0  0  0  0  0  0  0  0  0  0  0  0
   11.4193   58.7703   79.7484 O   0  0  0  0  0  0  0  0  0  0  0  0
    9.2676   56.5963   79.4813 C   0  0  0  0  0  0  0  0  0  0  0  0
   10.6944   59.2921   81.0445 C   0  0  0  0  0  0  0  0  0  0  0  0
  2  1  1  0
  4  1  1  0
  5  1  1  0
  6  3  1  0
  6  5  1  0
 10  2  1  0
 11  6  1  0
 12  2  1  0
 12  9  1  0
 13  4  1  0
 14  7  1  0
 14 12  1  0
 14 13  1  0
 15  6  1  0
 16  3  1  0
 17  8  1  0
 17 15  1  0
M  END
>  <ID>  (1) 
conformer_0

$$$$
