
     RDKit          3D

 17 18  0  0  0  0  0  0  0  0999 V2000
   13.5274   56.6734   81.3355 C   0  0  0  0  0  0  0  0  0  0  0  0
   11.2929   59.0562   80.7863 C   0  0  0  0  0  0  0  0  0  0  0  0
    9.0420   57.9755   79.4628 C   0  0  0  0  0  0  0  0  0  0  0  0
    9.7944   58.6485   81.0518 C   0  0  0  0  0  0  0  0  0  0  0  0
   14.8901   55.7647   82.3661 C   0  0  0  0  0  0  0  0  0  0  0  0
   10.8152   59.8714   82.2697 O   0  0  0  0  0  0  0  0  0  0  0  0
    9.3579   57.9909   81.7281 O   0  0  0  0  0  0  0  0  0  0  0  0
   16.5229   57.0386   81.1230 O   0  0  0  0  0  0  0  0  0  0  0  0
   14.7397   58.1860   79.5404 O   0  0  0  0  0  0  0  0  0  0  0  0
   12.7884   55.5468   82.3266 O   0  0  0  0  0  0  0  0  0  0  0  0
   12.3681   59.0571   79.1491 O   0  0  0  0  0  0  0  0  0  0  0  0
   15.2457   56.7060   83.2516 O   0  0  0  0  0  0  0  0  0  0  0  0
   12.1777   57.9980   80.3635 C   0  0  0  0  0  0  0  0  0  0  0  0
   12.3078   57.0402   81.3741 O   0  0  0  0  0  0  0  0  0  0  0  0
   15.1497   56.7882   81.0962 C   0  0  0  0  0  0  0  0  0  0  0  0
   13.8771   58.5149   80.0668 C   0  0  0  0  0  0  0  0  0  0  0  0
   10.3040   57.2192   79.3818 C   0  0  0  0  0  0  0  0  0  0  0  0
  4  2  1  0
  4  3  1  0
  5  1  1  0
  6  2  1  0
  7  4  1  0
 10  1  1  0
 12  5  1  0
 13  2  1  0
 13 11  1  0
 14  1  1  0
 14 13  1  0
 15  1  1  0
 15  5  1  0
 15  8  1  0
 16  9  1  0
 16 11  1  0
 16 13  1  0
 17  3  1  0
M  END
>  <ID>  (1) 
conformer_0

$$$$
