
     RDKit          3D

 16 15  0  0  0  0  0  0  0  0999 V2000
   15.3681   56.7029   81.4552 C   0  0  0  0  0  0  0  0  0  0  0  0
    9.5249   56.5573   79.4947 C   0  0  0  0  0  0  0  0  0  0  0  0
   11.1816   57.5199   80.7039 C   0  0  0  0  0  0  0  0  0  0  0  0
   13.7662   57.5162   80.9133 C   0  0  0  0  0  0  0  0  0  0  0  0
    9.5323   57.8972   81.8630 O   0  0  0  0  0  0  0  0  0  0  0  0
   16.5637   57.5465   81.1249 O   0  0  0  0  0  0  0  0  0  0  0  0
   13.5499   56.2966   81.5789 C   0  0  0  0  0  0  0  0  0  0  0  0
   10.7324   59.9420   81.9877 O   0  0  0  0  0  0  0  0  0  0  0  0
   13.1642   55.6449   82.7658 O   0  0  0  0  0  0  0  0  0  0  0  0
   12.7541   58.7918   79.5097 O   0  0  0  0  0  0  0  0  0  0  0  0
   15.1044   58.1601   80.0395 C   0  0  0  0  0  0  0  0  0  0  0  0
   11.4648   57.0959   81.0268 O   0  0  0  0  0  0  0  0  0  0  0  0
   15.2377   56.5446   82.9246 O   0  0  0  0  0  0  0  0  0  0  0  0
    9.5642   58.0040   79.2961 C   0  0  0  0  0  0  0  0  0  0  0  0
   12.8034   58.8702   80.0104 C   0  0  0  0  0  0  0  0  0  0  0  0
   10.3210   58.9472   80.7790 C   0  0  0  0  0  0  0  0  0  0  0  0
  6  1  1  0
  7  1  1  0
  7  4  1  0
  9  7  1  0
 11  4  1  0
 12  3  2  0
 13  1  1  0
 14  2  1  0
 14  3  1  0
 15  4  1  0
 15 10  1  0
 16  3  1  0
 16  5  1  0
 16  8  1  0
 16 15  1  0
M  END
>  <ID>  (1) 
conformer_0

$$$$
