
     RDKit          3D

 16 15  0  0  0  0  0  0  0  0999 V2000
   13.0335   57.2884   81.3460 C   0  0  0  0  0  0  0  0  0  0  0  0
   13.3729   58.5796   80.1116 C   0  0  0  0  0  0  0  0  0  0  0  0
    9.5267   57.5324   79.4790 C   0  0  0  0  0  0  0  0  0  0  0  0
   11.2954   58.1446   80.4275 C   0  0  0  0  0  0  0  0  0  0  0  0
    8.9825   57.5604   82.1258 O   0  0  0  0  0  0  0  0  0  0  0  0
    9.4826   58.0232   81.2204 C   0  0  0  0  0  0  0  0  0  0  0  0
   10.9500   59.5460   82.3303 O   0  0  0  0  0  0  0  0  0  0  0  0
   13.3193   55.4884   82.4517 O   0  0  0  0  0  0  0  0  0  0  0  0
   16.5087   57.3844   81.2605 O   0  0  0  0  0  0  0  0  0  0  0  0
   12.4404   58.9072   79.4002 O   0  0  0  0  0  0  0  0  0  0  0  0
   14.9636   57.9840   79.9710 C   0  0  0  0  0  0  0  0  0  0  0  0
   10.9893   57.3166   81.1161 O   0  0  0  0  0  0  0  0  0  0  0  0
   14.8469   58.0653   79.6324 O   0  0  0  0  0  0  0  0  0  0  0  0
   15.1369   56.7453   82.9465 O   0  0  0  0  0  0  0  0  0  0  0  0
   13.9492   56.1643   81.4500 C   0  0  0  0  0  0  0  0  0  0  0  0
   15.2862   56.4855   81.3626 C   0  0  0  0  0  0  0  0  0  0  0  0
  2  1  1  0
  6  3  1  0
  6  5  1  0
  7  4  1  0
 10  2  1  0
 10  4  1  0
 11  2  1  0
 12  4  1  0
 12  6  1  0
 13 11  1  0
 15  1  1  0
 15  8  1  0
 16  9  1  0
 16 14  1  0
 16 15  1  0
M  END
>  <ID>  (1) 
conformer_0

$$$$
