
     RDKit          3D

 16 17  0  0  0  0  0  0  0  0999 V2000
   14.4803   55.8151   82.1562 C   0  0  0  0  0  0  0  0  0  0  0  0
   15.1256   58.0860   79.9078 C   0  0  0  0  0  0  0  0  0  0  0  0
   13.1589   56.7857   81.1406 C   0  0  0  0  0  0  0  0  0  0  0  0
    8.5172   58.5338   81.7898 O   0  0  0  0  0  0  0  0  0  0  0  0
   13.0392   58.1239   80.0160 C   0  0  0  0  0  0  0  0  0  0  0  0
    8.1457   57.8648   79.7128 C   0  0  0  0  0  0  0  0  0  0  0  0
   16.6134   57.5216   80.6422 O   0  0  0  0  0  0  0  0  0  0  0  0
   10.9478   59.6189   82.1321 O   0  0  0  0  0  0  0  0  0  0  0  0
   13.2378   55.4151   82.6986 O   0  0  0  0  0  0  0  0  0  0  0  0
   11.5936   58.5892   79.3580 O   0  0  0  0  0  0  0  0  0  0  0  0
   11.6852   58.4671   80.6805 C   0  0  0  0  0  0  0  0  0  0  0  0
   15.4369   56.8169   83.0332 O   0  0  0  0  0  0  0  0  0  0  0  0
   14.5198   58.6104   79.7618 N   0  0  0  0  0  0  0  0  0  0  0  0
    9.4962   58.6318   81.0408 C   0  0  0  0  0  0  0  0  0  0  0  0
   15.0724   56.6110   81.1995 C   0  0  0  0  0  0  0  0  0  0  0  0
   10.1394   57.8825   80.9846 O   0  0  0  0  0  0  0  0  0  0  0  0
  5  3  1  0
  7  2  1  0
  9  1  1  0
 10  5  1  0
 11  5  1  0
 11  8  1  0
 11 10  1  0
 12  1  1  0
 13  2  1  0
 13  5  1  0
 14  4  1  0
 14  6  1  0
 15  1  1  0
 15  2  1  0
 15  3  1  0
 16 11  1  0
 16 14  1  0
M  END
>  <ID>  (1) 
conformer_0

$$$$
