
     RDKit          3D

 14 14  0  0  0  0  0  0  0  0999 V2000
   14.9836   56.3475   81.5212 C   0  0  0  0  0  0  0  0  0  0  0  0
    9.6658   59.0290   80.9617 C   0  0  0  0  0  0  0  0  0  0  0  0
   13.6769   56.1081   81.4394 C   0  0  0  0  0  0  0  0  0  0  0  0
   10.9320   59.0126   80.7594 C   0  0  0  0  0  0  0  0  0  0  0  0
   14.4473   57.8609   79.6156 O   0  0  0  0  0  0  0  0  0  0  0  0
   16.7902   57.4573   80.7299 O   0  0  0  0  0  0  0  0  0  0  0  0
   10.7257   60.2224   81.9425 O   0  0  0  0  0  0  0  0  0  0  0  0
   11.3508   57.4922   80.2942 O   0  0  0  0  0  0  0  0  0  0  0  0
   12.9341   55.1521   82.2089 O   0  0  0  0  0  0  0  0  0  0  0  0
   15.2322   56.5980   82.8365 O   0  0  0  0  0  0  0  0  0  0  0  0
   12.5339   57.3038   80.7074 C   0  0  0  0  0  0  0  0  0  0  0  0
    9.3642   57.8033   81.5346 O   0  0  0  0  0  0  0  0  0  0  0  0
   15.1065   57.5515   80.2901 C   0  0  0  0  0  0  0  0  0  0  0  0
   12.8911   58.6590   79.8386 C   0  0  0  0  0  0  0  0  0  0  0  0
  3  1  1  0
  4  2  1  0
  7  4  1  0
  8  4  1  0
  9  3  1  0
 10  1  1  0
 11  3  1  0
 11  8  1  0
 12  2  1  0
 13  1  1  0
 13  5  1  0
 13  6  1  0
 14  5  1  0
 14 11  1  0
M  END
>  <ID>  (1) 
conformer_0

$$$$
