
     RDKit          3D

 15 15  0  0  0  0  0  0  0  0999 V2000
   12.2925   57.4793   81.0019 C   0  0  0  0  0  0  0  0  0  0  0  0
   11.0155   58.3748   79.7631 C   0  0  0  0  0  0  0  0  0  0  0  0
   10.3221   58.6199   81.2651 C   0  0  0  0  0  0  0  0  0  0  0  0
    9.5586   57.9669   81.8857 O   0  0  0  0  0  0  0  0  0  0  0  0
   10.5238   59.9662   81.9320 O   0  0  0  0  0  0  0  0  0  0  0  0
   14.5147   58.0739   79.8713 O   0  0  0  0  0  0  0  0  0  0  0  0
   11.4383   58.9243   79.3409 O   0  0  0  0  0  0  0  0  0  0  0  0
   13.4474   58.2094   80.1369 C   0  0  0  0  0  0  0  0  0  0  0  0
    9.7851   57.2926   79.1810 C   0  0  0  0  0  0  0  0  0  0  0  0
   16.6501   57.5847   81.1381 O   0  0  0  0  0  0  0  0  0  0  0  0
   12.6255   55.6155   82.7245 O   0  0  0  0  0  0  0  0  0  0  0  0
   13.7037   56.3471   81.5638 C   0  0  0  0  0  0  0  0  0  0  0  0
   15.0422   56.4004   81.6050 C   0  0  0  0  0  0  0  0  0  0  0  0
   14.7281   56.4497   82.9055 O   0  0  0  0  0  0  0  0  0  0  0  0
   15.6132   57.7414   80.4143 C   0  0  0  0  0  0  0  0  0  0  0  0
  2  1  1  0
  3  2  1  0
  4  3  2  0
  5  3  1  0
  7  2  1  0
  8  1  1  0
  8  6  1  0
  9  2  1  0
 12  1  1  0
 12 11  1  0
 13 12  1  0
 14 13  1  0
 15  6  1  0
 15 10  1  0
 15 13  1  0
M  END
>  <ID>  (1) 
conformer_0

$$$$
