
     RDKit          3D

 15 17  0  0  0  0  0  0  0  0999 V2000
   15.0137   57.4208   80.6909 C   0  0  0  0  0  0  0  0  0  0  0  0
   12.7595   57.8879   80.5079 C   0  0  0  0  0  0  0  0  0  0  0  0
   10.8990   57.9166   80.5383 C   0  0  0  0  0  0  0  0  0  0  0  0
   16.6411   57.4025   80.8460 O   0  0  0  0  0  0  0  0  0  0  0  0
    9.3186   57.7235   81.8119 O   0  0  0  0  0  0  0  0  0  0  0  0
   13.1455   59.0217   79.3252 C   0  0  0  0  0  0  0  0  0  0  0  0
   11.0690   59.7712   82.2263 O   0  0  0  0  0  0  0  0  0  0  0  0
   12.8395   55.8247   82.5170 O   0  0  0  0  0  0  0  0  0  0  0  0
   11.4975   58.9412   79.3216 O   0  0  0  0  0  0  0  0  0  0  0  0
   14.1910   58.4423   79.8804 O   0  0  0  0  0  0  0  0  0  0  0  0
   15.2366   56.7753   83.0770 O   0  0  0  0  0  0  0  0  0  0  0  0
    9.9492   59.1220   81.1904 C   0  0  0  0  0  0  0  0  0  0  0  0
   13.4865   56.6155   81.3236 C   0  0  0  0  0  0  0  0  0  0  0  0
   15.2203   56.2718   81.8887 C   0  0  0  0  0  0  0  0  0  0  0  0
   11.1235   57.2913   80.9913 O   0  0  0  0  0  0  0  0  0  0  0  0
  3  2  1  0
  4  1  1  0
  6  2  1  0
  9  3  1  0
  9  6  1  0
 10  1  1  0
 10  6  1  0
 12  3  1  0
 12  5  1  0
 12  7  1  0
 13  1  1  0
 13  2  1  0
 13  8  1  0
 14  1  1  0
 14 11  1  0
 14 13  1  0
 15  3  1  0
M  END
>  <ID>  (1) 
conformer_0

$$$$
