
     RDKit          3D

 15 15  0  0  0  0  0  0  0  0999 V2000
   11.0689   58.3164   80.3237 C   0  0  0  0  0  0  0  0  0  0  0  0
   13.3568   56.6011   81.4647 C   0  0  0  0  0  0  0  0  0  0  0  0
    9.7758   58.1375   81.1536 C   0  0  0  0  0  0  0  0  0  0  0  0
    9.2958   57.2012   79.4895 C   0  0  0  0  0  0  0  0  0  0  0  0
   12.8260   57.8030   80.5674 C   0  0  0  0  0  0  0  0  0  0  0  0
    9.2929   57.5434   82.0265 O   0  0  0  0  0  0  0  0  0  0  0  0
   16.8107   57.4278   80.5595 O   0  0  0  0  0  0  0  0  0  0  0  0
   10.6760   59.3774   82.3521 O   0  0  0  0  0  0  0  0  0  0  0  0
   11.4275   59.1169   79.5051 O   0  0  0  0  0  0  0  0  0  0  0  0
   13.0717   55.3295   82.3030 O   0  0  0  0  0  0  0  0  0  0  0  0
   14.7986   58.1116   80.2744 O   0  0  0  0  0  0  0  0  0  0  0  0
   13.9405   58.7696   79.4708 C   0  0  0  0  0  0  0  0  0  0  0  0
   15.0874   56.5514   83.0908 O   0  0  0  0  0  0  0  0  0  0  0  0
   15.3728   57.3398   80.7556 C   0  0  0  0  0  0  0  0  0  0  0  0
   14.9360   56.2907   81.7210 C   0  0  0  0  0  0  0  0  0  0  0  0
  3  1  1  0
  4  3  1  0
  5  1  1  0
  5  2  2  0
  6  3  1  0
  8  3  1  0
  9  1  2  0
 10  2  1  0
 12  5  1  0
 12 11  1  0
 14  7  1  0
 14 11  1  0
 15  2  1  0
 15 13  1  0
 15 14  1  0
M  END
>  <ID>  (1) 
conformer_0

$$$$
