
     RDKit          3D

 13 12  0  0  0  0  0  0  0  0999 V2000
   15.8188   57.5635   80.2489 C   0  0  0  0  0  0  0  0  0  0  0  0
   13.5630   58.5700   79.8915 C   0  0  0  0  0  0  0  0  0  0  0  0
    9.4141   57.4911   79.3383 C   0  0  0  0  0  0  0  0  0  0  0  0
   10.1027   58.4881   80.8945 C   0  0  0  0  0  0  0  0  0  0  0  0
   11.9439   58.0888   80.4584 C   0  0  0  0  0  0  0  0  0  0  0  0
   14.5583   58.0486   79.7454 O   0  0  0  0  0  0  0  0  0  0  0  0
   10.8363   59.4963   82.3690 O   0  0  0  0  0  0  0  0  0  0  0  0
    9.5484   58.0016   81.5145 O   0  0  0  0  0  0  0  0  0  0  0  0
   13.5233   55.7837   82.8027 O   0  0  0  0  0  0  0  0  0  0  0  0
   16.4706   57.2427   81.2151 O   0  0  0  0  0  0  0  0  0  0  0  0
   11.5619   58.7874   79.5251 O   0  0  0  0  0  0  0  0  0  0  0  0
   14.7740   56.3923   81.3923 C   0  0  0  0  0  0  0  0  0  0  0  0
   13.2036   56.7217   81.3249 C   0  0  0  0  0  0  0  0  0  0  0  0
  4  3  1  0
  5  2  1  0
  5  4  1  0
  6  1  1  0
  6  2  1  0
  7  4  1  0
  8  4  1  0
 10  1  1  0
 11  5  1  0
 12  1  1  0
 13  9  1  0
 13 12  1  0
M  END
>  <ID>  (1) 
conformer_0

$$$$
