
     RDKit          3D

 14 14  0  0  0  0  0  0  0  0999 V2000
   14.8698   56.3299   81.7388 C   0  0  0  0  0  0  0  0  0  0  0  0
   13.1210   56.5686   81.3406 C   0  0  0  0  0  0  0  0  0  0  0  0
   12.9943   58.0825   80.2558 C   0  0  0  0  0  0  0  0  0  0  0  0
   10.8578   59.6404   82.3271 O   0  0  0  0  0  0  0  0  0  0  0  0
   14.7076   57.6947   79.7278 O   0  0  0  0  0  0  0  0  0  0  0  0
   14.8782   56.8045   82.9932 O   0  0  0  0  0  0  0  0  0  0  0  0
   12.3620   56.0829   82.2478 O   0  0  0  0  0  0  0  0  0  0  0  0
    9.4091   57.3331   79.6843 C   0  0  0  0  0  0  0  0  0  0  0  0
   11.2848   57.9300   80.4361 C   0  0  0  0  0  0  0  0  0  0  0  0
   16.5100   57.4996   81.3006 O   0  0  0  0  0  0  0  0  0  0  0  0
   15.1427   57.4891   80.6155 C   0  0  0  0  0  0  0  0  0  0  0  0
    9.1982   58.8371   81.3256 O   0  0  0  0  0  0  0  0  0  0  0  0
   10.3286   58.8573   80.9717 C   0  0  0  0  0  0  0  0  0  0  0  0
   12.9009   58.4977   79.7223 O   0  0  0  0  0  0  0  0  0  0  0  0
  2  1  1  0
  3  2  1  0
  5  3  1  0
  6  1  1  0
  7  2  1  0
  9  3  1  0
  9  8  1  0
 11  1  1  0
 11  5  1  0
 11 10  1  0
 13  4  1  0
 13  9  1  0
 13 12  1  0
 14  3  1  0
M  END
>  <ID>  (1) 
conformer_0

$$$$
