
     RDKit          3D

 15 15  0  0  0  0  0  0  0  0999 V2000
   15.7257   56.4433   81.3403 C   0  0  0  0  0  0  0  0  0  0  0  0
   13.8169   56.1278   81.2376 C   0  0  0  0  0  0  0  0  0  0  0  0
   11.1854   58.5468   80.4417 C   0  0  0  0  0  0  0  0  0  0  0  0
    9.3569   58.2920   80.6874 C   0  0  0  0  0  0  0  0  0  0  0  0
    9.0420   57.9066   81.8172 O   0  0  0  0  0  0  0  0  0  0  0  0
    9.1467   57.3471   79.3998 C   0  0  0  0  0  0  0  0  0  0  0  0
   15.1514   58.1597   80.0466 O   0  0  0  0  0  0  0  0  0  0  0  0
   11.1293   59.6233   82.1946 O   0  0  0  0  0  0  0  0  0  0  0  0
   11.2167   58.7671   79.4928 O   0  0  0  0  0  0  0  0  0  0  0  0
   15.7125   56.9626   82.6673 O   0  0  0  0  0  0  0  0  0  0  0  0
   11.7508   56.7567   80.8181 O   0  0  0  0  0  0  0  0  0  0  0  0
   13.4095   56.1505   82.7013 O   0  0  0  0  0  0  0  0  0  0  0  0
   14.7261   57.6720   80.6588 C   0  0  0  0  0  0  0  0  0  0  0  0
   12.5902   57.6028   80.7326 C   0  0  0  0  0  0  0  0  0  0  0  0
   13.3792   58.7660   79.7186 C   0  0  0  0  0  0  0  0  0  0  0  0
  2  1  1  0
  4  3  1  0
  5  4  1  0
  6  4  1  0
  8  3  1  0
  9  3  1  0
 10  1  1  0
 12  2  1  0
 13  1  1  0
 13  2  1  0
 13  7  1  0
 14  3  1  0
 14 11  1  0
 15 13  1  0
 15 14  1  0
M  END
>  <ID>  (1) 
conformer_0

$$$$
