
     RDKit          3D

 17 18  0  0  0  0  0  0  0  0999 V2000
   12.8310   57.0845   81.0393 C   0  0  0  0  0  0  0  0  0  0  0  0
   12.2258   58.6162   80.2177 C   0  0  0  0  0  0  0  0  0  0  0  0
   10.0776   59.1146   81.3840 C   0  0  0  0  0  0  0  0  0  0  0  0
    9.4565   57.3203   79.8059 C   0  0  0  0  0  0  0  0  0  0  0  0
    9.4355   58.2441   81.7581 O   0  0  0  0  0  0  0  0  0  0  0  0
   13.9121   58.0820   80.3035 C   0  0  0  0  0  0  0  0  0  0  0  0
   11.1935   59.9737   82.1389 O   0  0  0  0  0  0  0  0  0  0  0  0
   16.7136   57.7292   80.5617 O   0  0  0  0  0  0  0  0  0  0  0  0
   13.2147   55.4151   82.6996 O   0  0  0  0  0  0  0  0  0  0  0  0
   11.6344   59.0938   79.4104 O   0  0  0  0  0  0  0  0  0  0  0  0
   15.3022   57.0096   82.8560 O   0  0  0  0  0  0  0  0  0  0  0  0
   11.5102   56.8457   81.1015 O   0  0  0  0  0  0  0  0  0  0  0  0
   14.0354   55.9502   81.8396 C   0  0  0  0  0  0  0  0  0  0  0  0
   15.2747   56.5559   81.7050 C   0  0  0  0  0  0  0  0  0  0  0  0
   14.0350   58.3754   79.5647 O   0  0  0  0  0  0  0  0  0  0  0  0
   15.6526   57.5189   80.1971 C   0  0  0  0  0  0  0  0  0  0  0  0
   10.3746   57.5313   80.4863 C   0  0  0  0  0  0  0  0  0  0  0  0
  2  1  1  0
  5  3  1  0
  6  1  1  0
  6  2  1  0
  7  3  1  0
 10  2  1  0
 12  1  1  0
 13  1  1  0
 13  9  1  0
 14 11  1  0
 14 13  1  0
 15  6  1  0
 16  6  1  0
 16  8  1  0
 16 14  1  0
 17  4  1  0
 17  5  1  0
 17 12  1  0
M  END
>  <ID>  (1) 
conformer_0

$$$$
