
     RDKit          3D

 15 16  0  0  0  0  0  0  0  0999 V2000
   15.2223   57.4510   80.6878 C   0  0  0  0  0  0  0  0  0  0  0  0
   15.2125   56.5084   81.8775 C   0  0  0  0  0  0  0  0  0  0  0  0
   13.2681   58.5033   79.8582 C   0  0  0  0  0  0  0  0  0  0  0  0
   10.1652   57.5733   79.5437 C   0  0  0  0  0  0  0  0  0  0  0  0
    9.3764   57.9913   81.6879 O   0  0  0  0  0  0  0  0  0  0  0  0
    9.5731   58.7935   80.8617 C   0  0  0  0  0  0  0  0  0  0  0  0
   16.6428   57.5618   80.7555 O   0  0  0  0  0  0  0  0  0  0  0  0
   11.6331   59.3618   79.6197 O   0  0  0  0  0  0  0  0  0  0  0  0
   15.1035   56.9960   83.0212 O   0  0  0  0  0  0  0  0  0  0  0  0
   12.6356   55.8076   82.5102 O   0  0  0  0  0  0  0  0  0  0  0  0
   14.0220   58.3433   79.9572 O   0  0  0  0  0  0  0  0  0  0  0  0
   10.6308   59.7646   81.9999 O   0  0  0  0  0  0  0  0  0  0  0  0
   12.3027   56.8775   80.8310 C   0  0  0  0  0  0  0  0  0  0  0  0
   13.6761   56.5785   81.3095 C   0  0  0  0  0  0  0  0  0  0  0  0
   11.2949   58.4170   80.1182 C   0  0  0  0  0  0  0  0  0  0  0  0
  2  1  1  0
  6  4  1  0
  6  5  1  0
  7  1  1  0
  8  3  1  0
  9  2  1  0
 11  1  1  0
 11  3  1  0
 12  6  1  0
 14  1  1  0
 14  2  1  0
 14 10  1  0
 14 13  1  0
 15  4  1  0
 15  6  1  0
 15  8  1  0
M  END
>  <ID>  (1) 
conformer_0

$$$$
