
     RDKit          3D

 14 13  0  0  0  0  0  0  0  0999 V2000
   15.3450   56.9998   80.8709 C   0  0  0  0  0  0  0  0  0  0  0  0
   12.7855   57.1789   81.3740 C   0  0  0  0  0  0  0  0  0  0  0  0
   14.2599   58.1186   80.2017 C   0  0  0  0  0  0  0  0  0  0  0  0
    9.0547   57.9666   81.7211 O   0  0  0  0  0  0  0  0  0  0  0  0
    9.7620   57.6691   79.5687 C   0  0  0  0  0  0  0  0  0  0  0  0
   16.3033   57.3928   81.3946 O   0  0  0  0  0  0  0  0  0  0  0  0
   12.0970   58.3393   80.0933 C   0  0  0  0  0  0  0  0  0  0  0  0
   13.8606   55.4550   82.6050 O   0  0  0  0  0  0  0  0  0  0  0  0
   14.3324   57.8202   79.5809 O   0  0  0  0  0  0  0  0  0  0  0  0
   10.1649   58.1543   81.0725 C   0  0  0  0  0  0  0  0  0  0  0  0
   10.8987   59.4697   82.3803 O   0  0  0  0  0  0  0  0  0  0  0  0
   11.7391   56.2323   82.6734 O   0  0  0  0  0  0  0  0  0  0  0  0
   12.0555   58.9052   79.8015 O   0  0  0  0  0  0  0  0  0  0  0  0
   14.0798   56.1607   81.6194 C   0  0  0  0  0  0  0  0  0  0  0  0
  3  1  1  0
  6  1  1  0
  7  2  1  0
  9  3  1  0
 10  4  1  0
 10  5  1  0
 10  7  1  0
 11 10  1  0
 12  2  1  0
 13  7  1  0
 14  1  1  0
 14  2  1  0
 14  8  1  0
M  END
>  <ID>  (1) 
conformer_0

$$$$
