
     RDKit          3D

 13 12  0  0  0  0  0  0  0  0999 V2000
   15.1423   56.5638   81.5546 C   0  0  0  0  0  0  0  0  0  0  0  0
   13.9515   56.6737   81.2863 C   0  0  0  0  0  0  0  0  0  0  0  0
   13.9536   58.1301   80.1243 C   0  0  0  0  0  0  0  0  0  0  0  0
    9.3524   56.9619   79.6028 C   0  0  0  0  0  0  0  0  0  0  0  0
    9.7349   57.6463   82.1006 O   0  0  0  0  0  0  0  0  0  0  0  0
   10.8264   59.9207   82.5931 O   0  0  0  0  0  0  0  0  0  0  0  0
   12.3890   58.0990   80.3617 C   0  0  0  0  0  0  0  0  0  0  0  0
   16.3790   57.5168   81.3935 O   0  0  0  0  0  0  0  0  0  0  0  0
   13.4599   55.4277   82.4625 O   0  0  0  0  0  0  0  0  0  0  0  0
   14.1409   58.7042   79.6097 O   0  0  0  0  0  0  0  0  0  0  0  0
   11.6395   58.6597   79.5669 O   0  0  0  0  0  0  0  0  0  0  0  0
   10.3329   57.8980   80.7032 C   0  0  0  0  0  0  0  0  0  0  0  0
   15.2910   56.5791   83.2703 O   0  0  0  0  0  0  0  0  0  0  0  0
  2  1  1  0
  3  2  1  0
  6  5  1  0
  7  3  1  0
  8  1  1  0
  9  2  1  0
 10  3  2  0
 11  7  1  0
 12  4  1  0
 12  5  1  0
 12 11  1  0
 13  1  1  0
M  END
>  <ID>  (1) 
conformer_0

$$$$
