
     RDKit          3D

 13 12  0  0  0  0  0  0  0  0999 V2000
   14.9689   57.0546   80.8655 C   0  0  0  0  0  0  0  0  0  0  0  0
   14.6350   56.2250   81.5247 C   0  0  0  0  0  0  0  0  0  0  0  0
    9.5477   57.3734   79.5657 C   0  0  0  0  0  0  0  0  0  0  0  0
   12.3959   57.7102   80.6665 C   0  0  0  0  0  0  0  0  0  0  0  0
    9.0647   57.9574   81.8894 O   0  0  0  0  0  0  0  0  0  0  0  0
   10.0189   58.1991   80.9821 C   0  0  0  0  0  0  0  0  0  0  0  0
   11.7309   58.2188   79.8186 O   0  0  0  0  0  0  0  0  0  0  0  0
   10.5174   59.5813   82.1644 O   0  0  0  0  0  0  0  0  0  0  0  0
   16.4875   57.2723   80.6117 O   0  0  0  0  0  0  0  0  0  0  0  0
   14.4697   56.1800   82.8884 O   0  0  0  0  0  0  0  0  0  0  0  0
   12.8520   59.4375   81.5575 O   0  0  0  0  0  0  0  0  0  0  0  0
   13.8856   58.3797   80.1454 C   0  0  0  0  0  0  0  0  0  0  0  0
   14.3298   58.3004   79.6294 O   0  0  0  0  0  0  0  0  0  0  0  0
  2  1  1  0
  6  3  1  0
  6  5  1  0
  7  4  1  0
  7  6  1  0
  8  6  1  0
  9  1  1  0
 10  2  1  0
 11  4  1  0
 12  1  1  0
 12  4  1  0
 13 12  1  0
M  END
>  <ID>  (1) 
conformer_0

$$$$
