
     RDKit          3D

 15 15  0  0  0  0  0  0  0  0999 V2000
   14.9041   56.4242   81.3601 C   0  0  0  0  0  0  0  0  0  0  0  0
   13.2044   58.8101   79.6060 C   0  0  0  0  0  0  0  0  0  0  0  0
   10.8221   58.6303   80.1723 C   0  0  0  0  0  0  0  0  0  0  0  0
   15.3155   57.5018   80.5561 C   0  0  0  0  0  0  0  0  0  0  0  0
   14.5663   58.3638   79.9401 O   0  0  0  0  0  0  0  0  0  0  0  0
   10.5552   59.7977   82.3573 O   0  0  0  0  0  0  0  0  0  0  0  0
    9.0952   58.1044   81.6029 O   0  0  0  0  0  0  0  0  0  0  0  0
    9.4454   57.3858   79.1755 C   0  0  0  0  0  0  0  0  0  0  0  0
   14.7590   56.5977   82.9031 O   0  0  0  0  0  0  0  0  0  0  0  0
   12.3685   55.8135   82.4007 O   0  0  0  0  0  0  0  0  0  0  0  0
   10.1008   58.7903   81.2476 C   0  0  0  0  0  0  0  0  0  0  0  0
   16.5759   57.2672   81.3794 O   0  0  0  0  0  0  0  0  0  0  0  0
   11.8027   58.6225   79.6235 O   0  0  0  0  0  0  0  0  0  0  0  0
   12.5447   57.6283   80.6800 C   0  0  0  0  0  0  0  0  0  0  0  0
   13.3451   56.2654   81.3290 C   0  0  0  0  0  0  0  0  0  0  0  0
  4  1  2  0
  5  2  1  0
  5  4  1  0
  8  3  1  0
  9  1  1  0
 11  3  1  0
 11  6  1  0
 11  7  2  0
 12  4  1  0
 13  2  1  0
 13  3  1  0
 14  2  1  0
 15  1  1  0
 15 10  1  0
 15 14  2  0
M  END
>  <ID>  (1) 
conformer_0

$$$$
