
     RDKit          3D

 17 18  0  0  0  0  0  0  0  0999 V2000
   15.6917   56.9097   80.8602 C   0  0  0  0  0  0  0  0  0  0  0  0
   11.7866   58.6291   80.0608 C   0  0  0  0  0  0  0  0  0  0  0  0
   10.3059   59.6351   80.7396 C   0  0  0  0  0  0  0  0  0  0  0  0
   13.8142   57.2071   80.5802 C   0  0  0  0  0  0  0  0  0  0  0  0
    9.6585   57.7821   79.1309 C   0  0  0  0  0  0  0  0  0  0  0  0
    9.5338   57.5073   82.3359 O   0  0  0  0  0  0  0  0  0  0  0  0
   10.2815   60.1312   82.1350 O   0  0  0  0  0  0  0  0  0  0  0  0
   11.6499   59.2740   79.4044 O   0  0  0  0  0  0  0  0  0  0  0  0
   16.6345   57.0432   81.0443 O   0  0  0  0  0  0  0  0  0  0  0  0
   14.7568   56.0874   81.8008 C   0  0  0  0  0  0  0  0  0  0  0  0
   12.6400   55.5028   82.1754 O   0  0  0  0  0  0  0  0  0  0  0  0
   14.2387   58.3589   80.0064 O   0  0  0  0  0  0  0  0  0  0  0  0
   14.7409   56.1444   82.9706 O   0  0  0  0  0  0  0  0  0  0  0  0
   12.5904   56.8324   81.0930 C   0  0  0  0  0  0  0  0  0  0  0  0
   10.4839   58.0593   81.3959 C   0  0  0  0  0  0  0  0  0  0  0  0
   11.2422   57.3115   81.5947 O   0  0  0  0  0  0  0  0  0  0  0  0
   13.9995   58.8200   79.4854 C   0  0  0  0  0  0  0  0  0  0  0  0
  3  2  1  0
  4  1  1  0
  5  3  1  0
  7  3  1  0
  8  2  1  0
  9  1  1  0
 10  1  1  0
 10  4  1  0
 12  4  1  0
 13 10  1  0
 14  4  1  0
 14 11  1  0
 15  2  1  0
 15  3  1  0
 15  6  1  0
 16 14  1  0
 16 15  1  0
 17 12  1  0
M  END
>  <ID>  (1) 
conformer_0

$$$$
