
     RDKit          3D

 16 15  0  0  0  0  0  0  0  0999 V2000
   13.1914   57.0682   80.8853 C   0  0  0  0  0  0  0  0  0  0  0  0
   10.8724   59.2067   81.0394 C   0  0  0  0  0  0  0  0  0  0  0  0
    9.8449   58.0214   80.9544 C   0  0  0  0  0  0  0  0  0  0  0  0
    9.3756   57.3923   79.5131 C   0  0  0  0  0  0  0  0  0  0  0  0
    9.4683   57.7141   81.9709 O   0  0  0  0  0  0  0  0  0  0  0  0
   16.7904   57.2535   80.8966 O   0  0  0  0  0  0  0  0  0  0  0  0
   15.6040   57.6751   80.1712 C   0  0  0  0  0  0  0  0  0  0  0  0
   11.1724   59.9963   81.7774 O   0  0  0  0  0  0  0  0  0  0  0  0
   14.4105   58.0225   79.9678 O   0  0  0  0  0  0  0  0  0  0  0  0
   12.8328   55.4364   82.5955 O   0  0  0  0  0  0  0  0  0  0  0  0
   11.6585   58.6860   79.4137 O   0  0  0  0  0  0  0  0  0  0  0  0
   15.0928   56.7307   81.7052 C   0  0  0  0  0  0  0  0  0  0  0  0
   13.9309   55.9865   81.7652 C   0  0  0  0  0  0  0  0  0  0  0  0
   14.9275   56.2036   83.0267 O   0  0  0  0  0  0  0  0  0  0  0  0
   11.8863   58.4087   79.8835 C   0  0  0  0  0  0  0  0  0  0  0  0
   13.7098   58.6603   79.5280 C   0  0  0  0  0  0  0  0  0  0  0  0
  3  2  1  0
  4  3  1  0
  5  3  2  0
  7  6  1  0
  8  2  1  0
  9  7  1  0
 12  7  1  0
 13  1  1  0
 13 10  1  0
 13 12  1  0
 14 12  1  0
 15  2  1  0
 15 11  1  0
 16  9  1  0
 16 15  1  0
M  END
>  <ID>  (1) 
conformer_0

$$$$
