
     RDKit          3D

 13 13  0  0  0  0  0  0  0  0999 V2000
   15.2046   57.2471   80.5269 C   0  0  0  0  0  0  0  0  0  0  0  0
   13.0386   57.1026   80.9430 C   0  0  0  0  0  0  0  0  0  0  0  0
    9.8417   58.0040   81.0585 C   0  0  0  0  0  0  0  0  0  0  0  0
   14.2305   55.9700   81.9705 C   0  0  0  0  0  0  0  0  0  0  0  0
    9.5413   57.1490   79.7312 C   0  0  0  0  0  0  0  0  0  0  0  0
    8.7671   57.7564   81.9956 O   0  0  0  0  0  0  0  0  0  0  0  0
   16.7215   57.3888   80.7416 O   0  0  0  0  0  0  0  0  0  0  0  0
   11.9123   59.2927   79.6674 O   0  0  0  0  0  0  0  0  0  0  0  0
   13.6628   55.7992   83.1976 O   0  0  0  0  0  0  0  0  0  0  0  0
   13.6152   58.4075   79.9558 C   0  0  0  0  0  0  0  0  0  0  0  0
   11.4435   58.5560   80.5015 C   0  0  0  0  0  0  0  0  0  0  0  0
   14.4367   58.5852   79.5754 O   0  0  0  0  0  0  0  0  0  0  0  0
   10.9296   57.3592   81.4481 O   0  0  0  0  0  0  0  0  0  0  0  0
  4  2  1  0
  5  3  1  0
  6  3  1  0
  7  1  1  0
  9  4  1  0
 10  2  1  0
 10  8  1  0
 11  3  1  0
 11  8  1  0
 12  1  1  0
 12 10  1  0
 13  3  1  0
 13 11  1  0
M  END
>  <ID>  (1) 
conformer_0

$$$$
