
     RDKit          3D

 14 14  0  0  0  0  0  0  0  0999 V2000
   14.3876   56.3754   81.4542 C   0  0  0  0  0  0  0  0  0  0  0  0
   15.2901   56.9496   80.8560 C   0  0  0  0  0  0  0  0  0  0  0  0
   13.6509   58.3905   80.0542 C   0  0  0  0  0  0  0  0  0  0  0  0
    8.7912   57.6209   82.0021 O   0  0  0  0  0  0  0  0  0  0  0  0
   14.3715   58.4232   79.5372 O   0  0  0  0  0  0  0  0  0  0  0  0
    9.0598   57.9803   79.4801 C   0  0  0  0  0  0  0  0  0  0  0  0
   11.8570   58.5215   80.2208 C   0  0  0  0  0  0  0  0  0  0  0  0
   16.7326   57.5138   80.9360 O   0  0  0  0  0  0  0  0  0  0  0  0
   13.1822   55.7985   82.6310 O   0  0  0  0  0  0  0  0  0  0  0  0
   11.0158   56.9110   80.8005 O   0  0  0  0  0  0  0  0  0  0  0  0
   10.0056   57.8397   81.1289 C   0  0  0  0  0  0  0  0  0  0  0  0
   11.7900   58.7408   79.2752 O   0  0  0  0  0  0  0  0  0  0  0  0
   15.4628   56.8662   82.6526 O   0  0  0  0  0  0  0  0  0  0  0  0
   12.7426   57.0756   81.0551 C   0  0  0  0  0  0  0  0  0  0  0  0
  2  1  1  0
  5  3  2  0
  7  3  1  0
  8  2  1  0
  9  1  1  0
 11  4  1  0
 11  6  1  0
 11 10  1  0
 12  7  1  0
 13  1  1  0
 14  1  1  0
 14  3  1  0
 14  7  1  0
 14 10  1  0
M  END
>  <ID>  (1) 
conformer_0

$$$$
