
     RDKit          3D

 15 15  0  0  0  0  0  0  0  0999 V2000
   15.7160   57.0266   80.7104 C   0  0  0  0  0  0  0  0  0  0  0  0
   14.3299   58.0010   80.2318 C   0  0  0  0  0  0  0  0  0  0  0  0
    8.6997   57.7460   79.7360 C   0  0  0  0  0  0  0  0  0  0  0  0
   12.5467   58.3874   80.1950 C   0  0  0  0  0  0  0  0  0  0  0  0
    9.4559   57.7341   82.0630 O   0  0  0  0  0  0  0  0  0  0  0  0
   10.9152   57.5546   80.5771 C   0  0  0  0  0  0  0  0  0  0  0  0
   16.9222   57.4126   80.6918 O   0  0  0  0  0  0  0  0  0  0  0  0
   10.4119   59.8980   82.0910 O   0  0  0  0  0  0  0  0  0  0  0  0
   12.7315   58.8317   79.4344 O   0  0  0  0  0  0  0  0  0  0  0  0
   15.3889   56.4625   82.9667 O   0  0  0  0  0  0  0  0  0  0  0  0
   14.9988   56.3188   81.6124 C   0  0  0  0  0  0  0  0  0  0  0  0
   13.1034   56.0172   82.6261 O   0  0  0  0  0  0  0  0  0  0  0  0
    9.2598   58.6443   81.2192 C   0  0  0  0  0  0  0  0  0  0  0  0
   13.2185   56.5878   81.0100 C   0  0  0  0  0  0  0  0  0  0  0  0
   10.0339   57.0440   79.3757 C   0  0  0  0  0  0  0  0  0  0  0  0
  2  1  1  0
  4  2  1  0
  6  4  1  0
  7  1  1  0
  9  4  2  0
 11  1  1  0
 11 10  1  0
 13  3  1  0
 13  5  2  0
 13  8  1  0
 14  2  1  0
 14 11  1  0
 14 12  1  0
 15  3  1  0
 15  6  1  0
M  END
>  <ID>  (1) 
conformer_0

$$$$
