
     RDKit          3D

 15 14  0  0  0  0  0  0  0  0999 V2000
   15.0495   56.4995   81.8085 C   0  0  0  0  0  0  0  0  0  0  0  0
   15.0656   57.6966   80.4856 C   0  0  0  0  0  0  0  0  0  0  0  0
   12.9857   58.2707   79.9637 C   0  0  0  0  0  0  0  0  0  0  0  0
    9.6195   57.2899   79.5043 C   0  0  0  0  0  0  0  0  0  0  0  0
    9.2825   58.0709   81.7678 O   0  0  0  0  0  0  0  0  0  0  0  0
   10.9953   58.2956   80.2303 C   0  0  0  0  0  0  0  0  0  0  0  0
   11.8057   58.7174   79.4090 O   0  0  0  0  0  0  0  0  0  0  0  0
   16.2399   57.6196   81.5509 O   0  0  0  0  0  0  0  0  0  0  0  0
   12.5386   56.0334   82.5401 O   0  0  0  0  0  0  0  0  0  0  0  0
   11.4836   59.0945   81.9138 O   0  0  0  0  0  0  0  0  0  0  0  0
   14.8445   57.9291   79.7904 O   0  0  0  0  0  0  0  0  0  0  0  0
    9.6131   58.8292   80.9767 C   0  0  0  0  0  0  0  0  0  0  0  0
   14.9398   56.4615   83.0608 O   0  0  0  0  0  0  0  0  0  0  0  0
   12.9646   57.3640   81.1619 C   0  0  0  0  0  0  0  0  0  0  0  0
   13.7762   55.9255   81.6229 C   0  0  0  0  0  0  0  0  0  0  0  0
  2  1  1  0
  6  4  1  0
  7  3  1  0
  7  6  1  0
  8  2  1  0
 10  6  1  0
 11  2  2  0
 12  5  1  0
 12  6  1  0
 13  1  1  0
 14  3  1  0
 15  1  1  0
 15  9  1  0
 15 14  1  0
M  END
>  <ID>  (1) 
conformer_0

$$$$
