
     RDKit          3D

 15 15  0  0  0  0  0  0  0  0999 V2000
   12.6750   58.5260   79.8296 C   0  0  0  0  0  0  0  0  0  0  0  0
   13.9129   56.2622   81.7160 C   0  0  0  0  0  0  0  0  0  0  0  0
    9.7508   58.1912   80.6392 C   0  0  0  0  0  0  0  0  0  0  0  0
    9.0184   58.0453   81.5388 O   0  0  0  0  0  0  0  0  0  0  0  0
    9.3547   57.1893   79.3445 C   0  0  0  0  0  0  0  0  0  0  0  0
   16.4625   57.7316   80.8979 O   0  0  0  0  0  0  0  0  0  0  0  0
   12.8065   56.9448   81.0131 C   0  0  0  0  0  0  0  0  0  0  0  0
   10.7168   59.6286   82.4366 O   0  0  0  0  0  0  0  0  0  0  0  0
   12.7326   55.5404   82.5896 O   0  0  0  0  0  0  0  0  0  0  0  0
   13.9540   58.6088   79.8096 O   0  0  0  0  0  0  0  0  0  0  0  0
   11.2860   57.9657   80.1354 O   0  0  0  0  0  0  0  0  0  0  0  0
   15.0748   56.4454   82.7883 O   0  0  0  0  0  0  0  0  0  0  0  0
   14.4917   57.9533   80.4120 C   0  0  0  0  0  0  0  0  0  0  0  0
   15.4053   56.8141   81.0973 C   0  0  0  0  0  0  0  0  0  0  0  0
   11.2765   59.1367   81.0264 C   0  0  0  0  0  0  0  0  0  0  0  0
  4  3  2  0
  5  3  1  0
  7  2  1  0
  9  2  1  0
 10  1  1  0
 11  1  1  0
 12  2  1  0
 13 10  1  0
 14  2  1  0
 14  6  1  0
 14 13  1  0
 15  1  1  0
 15  3  1  0
 15  8  1  0
 15 11  1  0
M  END
>  <ID>  (1) 
conformer_0

$$$$
