
     RDKit          3D

 16 16  0  0  0  0  0  0  0  0999 V2000
   14.8792   58.1579   79.9897 C   0  0  0  0  0  0  0  0  0  0  0  0
   15.7607   56.8886   80.8398 C   0  0  0  0  0  0  0  0  0  0  0  0
   13.0921   58.9608   79.5937 C   0  0  0  0  0  0  0  0  0  0  0  0
    8.7336   58.1292   81.7463 O   0  0  0  0  0  0  0  0  0  0  0  0
   10.9426   58.5377   80.2269 C   0  0  0  0  0  0  0  0  0  0  0  0
   16.7088   57.6443   80.7216 O   0  0  0  0  0  0  0  0  0  0  0  0
   11.0496   59.3944   79.6618 O   0  0  0  0  0  0  0  0  0  0  0  0
    9.3457   57.4550   79.4776 C   0  0  0  0  0  0  0  0  0  0  0  0
   10.6937   59.5928   82.1591 O   0  0  0  0  0  0  0  0  0  0  0  0
   14.4655   58.5924   79.5237 O   0  0  0  0  0  0  0  0  0  0  0  0
    9.1542   58.4559   81.0831 C   0  0  0  0  0  0  0  0  0  0  0  0
   13.9108   55.3178   82.8518 O   0  0  0  0  0  0  0  0  0  0  0  0
   11.9880   56.8865   80.9879 O   0  0  0  0  0  1  0  0  0  0  0  0
   12.3556   57.6522   80.5374 C   0  0  0  0  0  0  0  0  0  0  0  0
   13.8242   56.6856   80.9335 C   0  0  0  0  0  0  0  0  0  0  0  0
   14.7586   55.6471   82.0716 C   0  0  0  0  0  0  0  0  0  0  0  0
  2  1  1  0
  6  2  1  0
  7  5  2  0
 10  1  1  0
 10  3  1  0
 11  4  1  0
 11  5  1  0
 11  8  1  0
 11  9  1  0
 14  3  1  0
 14  5  1  0
 14 13  1  0
 15  2  1  0
 15 14  1  0
 16 12  1  0
 16 15  1  0
M  RAD  1  13   2
M  END
>  <ID>  (1) 
conformer_0

$$$$
