
     RDKit          3D

 16 15  0  0  0  0  0  0  0  0999 V2000
   13.3557   57.4290   80.8782 C   0  0  0  0  0  0  0  0  0  0  0  0
   15.4522   57.4224   80.5340 C   0  0  0  0  0  0  0  0  0  0  0  0
    9.2460   57.4058   79.4147 C   0  0  0  0  0  0  0  0  0  0  0  0
   13.1298   56.1895   81.5739 C   0  0  0  0  0  0  0  0  0  0  0  0
   16.8644   57.2857   80.5532 O   0  0  0  0  0  0  0  0  0  0  0  0
   12.9255   58.5675   79.9950 C   0  0  0  0  0  0  0  0  0  0  0  0
    9.2555   57.6882   82.0975 O   0  0  0  0  0  0  0  0  0  0  0  0
   14.3751   58.3133   79.8257 O   0  0  0  0  0  0  0  0  0  0  0  0
   12.4261   55.3797   82.6297 O   0  0  0  0  0  0  0  0  0  0  0  0
   11.3563   60.0397   82.1062 O   0  0  0  0  0  0  0  0  0  0  0  0
   11.6507   59.1441   79.5071 O   0  0  0  0  0  0  0  0  0  0  0  0
   15.1586   56.4670   81.5564 C   0  0  0  0  0  0  0  0  0  0  0  0
   14.4352   56.2570   82.8427 O   0  0  0  0  0  0  0  0  0  0  0  0
   10.6653   59.2922   81.1294 C   0  0  0  0  0  0  0  0  0  0  0  0
   10.9949   57.4855   80.7838 C   0  0  0  0  0  0  0  0  0  0  0  0
   10.8210   57.5127   81.3606 O   0  0  0  0  0  0  0  0  0  0  0  0
  4  1  1  0
  5  2  1  0
  6  1  1  0
  8  2  1  0
  8  6  1  0
  9  4  1  0
 11  6  1  0
 12  2  1  0
 13 12  1  0
 14 10  1  0
 14 11  1  0
 15  3  1  0
 15  7  1  0
 15 14  1  0
 16 15  1  0
M  END
>  <ID>  (1) 
conformer_0

$$$$
