
     RDKit          3D

 12 11  0  0  0  0  0  0  0  0999 V2000
   13.4798   56.7588   81.4866 C   0  0  0  0  0  0  0  0  0  0  0  0
    9.5707   57.3460   79.5300 C   0  0  0  0  0  0  0  0  0  0  0  0
   14.9843   56.7758   81.2937 C   0  0  0  0  0  0  0  0  0  0  0  0
   12.5490   58.1491   80.4753 C   0  0  0  0  0  0  0  0  0  0  0  0
    9.0543   57.6676   82.0255 O   0  0  0  0  0  0  0  0  0  0  0  0
   10.1129   57.9507   80.8544 C   0  0  0  0  0  0  0  0  0  0  0  0
   12.2043   59.0330   79.5366 O   0  0  0  0  0  0  0  0  0  0  0  0
   16.4419   57.2758   81.2376 O   0  0  0  0  0  0  0  0  0  0  0  0
   13.7299   56.0142   82.8488 O   0  0  0  0  0  0  0  0  0  0  0  0
   14.9474   59.4517   80.8109 O   0  0  0  0  0  0  0  0  0  0  0  0
   11.2367   57.1927   80.9690 O   0  0  0  0  0  0  0  0  0  0  0  0
   14.5161   58.0925   80.2498 C   0  0  0  0  0  0  0  0  0  0  0  0
  3  1  1  0
  4  1  1  0
  6  2  1  0
  6  5  1  0
  7  4  2  0
  8  3  1  0
  9  1  1  0
 11  4  1  0
 11  6  1  0
 12  3  1  0
 12 10  1  0
M  END
>  <ID>  (1) 
conformer_0

$$$$
