
     RDKit          3D

 19 19  0  0  0  0  0  0  0  0999 V2000
   15.8619   57.4758   80.3492 C   0  0  0  0  0  0  0  0  0  0  0  0
   11.0234   58.4267   80.7061 C   0  0  0  0  0  0  0  0  0  0  0  0
    8.9654   57.9382   79.4750 C   0  0  0  0  0  0  0  0  0  0  0  0
    9.4402   58.1177   80.8279 C   0  0  0  0  0  0  0  0  0  0  0  0
    8.9633   57.8586   81.7238 O   0  0  0  0  0  0  0  0  0  0  0  0
   12.6860   58.4508   79.9703 C   0  0  0  0  0  0  0  0  0  0  0  0
   10.5901   59.5687   82.0436 O   0  0  0  0  0  0  0  0  0  0  0  0
   14.8386   55.8851   83.2929 O   0  0  0  0  0  0  0  0  0  0  0  0
   14.6922   57.7922   79.7977 O   0  0  0  0  0  0  0  0  0  0  0  0
   12.6029   55.7912   82.5850 O   0  0  0  0  0  0  0  0  0  0  0  0
   15.2296   56.6927   81.9449 C   0  0  0  0  0  0  0  0  0  0  0  0
   11.4556   57.0034   80.4194 O   0  0  0  0  0  0  0  0  0  0  0  0
   12.8713   59.7369   81.0845 O   0  0  0  0  0  0  0  0  0  0  0  0
   14.2346   58.1571   80.3449 C   0  0  0  0  0  0  0  0  0  0  0  0
   12.4941   58.7896   79.2141 O   0  0  0  0  0  0  0  0  0  0  0  0
   16.2059   57.2304   82.3134 O   0  0  0  0  0  0  0  0  0  0  0  0
    9.2641   56.4261   79.4513 C   0  0  0  0  0  0  0  0  0  0  0  0
   13.9633   56.1223   81.6459 C   0  0  0  0  0  0  0  0  0  0  0  0
   12.6216   56.9892   81.1859 C   0  0  0  0  0  0  0  0  0  0  0  0
  4  2  1  0
  4  3  1  0
  5  4  2  0
  6  2  1  0
  7  2  1  0
  9  1  1  0
 11  1  1  0
 11  8  1  0
 12  2  1  0
 13  6  1  0
 14  6  1  0
 14  9  1  0
 15  6  1  0
 16 11  1  0
 17  3  1  0
 18 10  1  0
 18 11  1  0
 19 12  1  0
 19 18  1  0
M  END
>  <ID>  (1) 
conformer_0

$$$$
