
     RDKit          3D

 16 18  0  0  0  0  0  0  0  0999 V2000
   15.5014   57.6104   80.0681 C   0  0  0  0  0  0  0  0  0  0  0  0
   13.6052   57.5243   80.5114 C   0  0  0  0  0  0  0  0  0  0  0  0
   10.4243   58.6534   80.1038 C   0  0  0  0  0  0  0  0  0  0  0  0
   13.2307   56.2572   81.6063 C   0  0  0  0  0  0  0  0  0  0  0  0
    9.4442   57.2761   82.2510 O   0  0  0  0  0  0  0  0  0  0  0  0
   16.8613   57.5522   80.4679 O   0  0  0  0  0  0  0  0  0  0  0  0
   10.3949   59.5106   82.2187 O   0  0  0  0  0  0  0  0  0  0  0  0
   14.3392   58.1651   79.5647 O   0  0  0  0  0  0  0  0  0  0  0  0
   13.2233   55.5980   83.0105 O   0  0  0  0  0  0  0  0  0  0  0  0
   11.6178   58.6707   79.2595 O   0  0  0  0  0  0  0  0  0  0  0  0
   14.8300   56.4731   81.4593 C   0  0  0  0  0  0  0  0  0  0  0  0
   11.5911   56.9053   81.1318 O   0  0  0  0  0  0  0  0  0  0  0  0
   12.8972   58.8175   79.4183 C   0  0  0  0  0  0  0  0  0  0  0  0
   15.4899   56.8736   82.2122 O   0  0  0  0  0  0  0  0  0  0  0  0
   11.6987   57.5504   80.6541 C   0  0  0  0  0  0  0  0  0  0  0  0
    9.8065   58.1916   81.4458 C   0  0  0  0  0  0  0  0  0  0  0  0
  4  2  1  0
  6  1  1  0
  8  1  1  0
  8  2  1  0
  9  4  1  0
 10  3  1  0
 11  1  1  0
 11  2  1  0
 11  4  1  0
 12  4  1  0
 13  2  1  0
 13 10  1  0
 14 11  1  0
 15  3  1  0
 15 12  1  0
 16  3  1  0
 16  5  2  0
 16  7  1  0
M  END
>  <ID>  (1) 
conformer_0

$$$$
