
     RDKit          3D

 14 13  0  0  0  0  0  0  0  0999 V2000
   13.3629   58.0066   80.2182 C   0  0  0  0  0  0  0  0  0  0  0  0
   13.2907   56.7391   81.3988 C   0  0  0  0  0  0  0  0  0  0  0  0
   11.4177   58.1071   80.5296 C   0  0  0  0  0  0  0  0  0  0  0  0
    9.1157   57.8212   79.5720 C   0  0  0  0  0  0  0  0  0  0  0  0
    9.0697   57.6533   81.7369 O   0  0  0  0  0  0  0  0  0  0  0  0
   16.7850   57.6046   80.8462 O   0  0  0  0  0  0  0  0  0  0  0  0
    9.3716   58.4573   80.8835 C   0  0  0  0  0  0  0  0  0  0  0  0
   13.0399   56.0673   82.7670 O   0  0  0  0  0  0  0  0  0  0  0  0
   11.5891   58.5114   79.6603 O   0  0  0  0  0  0  0  0  0  0  0  0
   15.1328   56.5017   81.6387 C   0  0  0  0  0  0  0  0  0  0  0  0
   15.5220   57.4157   80.4308 C   0  0  0  0  0  0  0  0  0  0  0  0
   15.2923   56.6166   82.9149 O   0  0  0  0  0  0  0  0  0  0  0  0
   13.8608   58.2512   79.7774 O   0  0  0  0  0  0  0  0  0  0  0  0
   10.5399   59.0313   81.9949 O   0  0  0  0  0  0  0  0  0  0  0  0
  2  1  1  0
  3  1  1  0
  7  3  1  0
  7  4  1  0
  7  5  1  0
  8  2  1  0
  9  3  2  0
 10  2  1  0
 11  6  1  0
 11 10  1  0
 12 10  1  0
 13  1  2  0
 14  7  1  0
M  END
>  <ID>  (1) 
conformer_0

$$$$
