
     RDKit          3D

 14 13  0  0  0  0  0  0  0  0999 V2000
   14.9282   57.1868   80.9382 C   0  0  0  0  0  0  0  0  0  0  0  0
   14.2394   56.1420   81.6420 C   0  0  0  0  0  0  0  0  0  0  0  0
   12.7148   57.1333   80.9140 C   0  0  0  0  0  0  0  0  0  0  0  0
   14.0507   58.6942   79.4598 C   0  0  0  0  0  0  0  0  0  0  0  0
    8.8071   57.8131   81.9723 O   0  0  0  0  0  0  0  0  0  0  0  0
   16.4526   57.4128   80.9969 O   0  0  0  0  0  0  0  0  0  0  0  0
   11.7524   58.5179   80.3424 C   0  0  0  0  0  0  0  0  0  0  0  0
   11.7435   59.0715   79.2565 O   0  0  0  0  0  0  0  0  0  0  0  0
   10.6958   59.7855   81.9512 O   0  0  0  0  0  0  0  0  0  0  0  0
   14.9917   56.1106   82.9641 O   0  0  0  0  0  0  0  0  0  0  0  0
   12.7543   55.4699   82.7680 O   0  0  0  0  0  0  0  0  0  0  0  0
   14.1845   57.8471   79.8199 O   0  0  0  0  0  0  0  0  0  0  0  0
    9.9739   58.5130   81.0297 C   0  0  0  0  0  0  0  0  0  0  0  0
    8.9455   58.0471   79.7322 C   0  0  0  0  0  0  0  0  0  0  0  0
  2  1  1  0
  3  2  1  0
  6  1  1  0
  7  3  1  0
  8  7  2  0
 10  2  1  0
 11  2  1  0
 12  1  1  0
 12  4  1  0
 13  5  1  0
 13  7  1  0
 13  9  1  0
 14 13  1  0
M  END
>  <ID>  (1) 
conformer_0

$$$$
