
     RDKit          3D

 16 16  0  0  0  0  0  0  0  0999 V2000
   15.4200   56.4711   81.8587 C   0  0  0  0  0  0  0  0  0  0  0  0
   15.5274   57.4275   80.4158 C   0  0  0  0  0  0  0  0  0  0  0  0
   14.1171   56.4622   81.5853 C   0  0  0  0  0  0  0  0  0  0  0  0
    8.8744   57.4605   82.1174 O   0  0  0  0  0  0  0  0  0  0  0  0
   13.0226   58.3472   79.8995 C   0  0  0  0  0  0  0  0  0  0  0  0
    8.9768   57.6677   79.6909 C   0  0  0  0  0  0  0  0  0  0  0  0
   16.9400   57.6120   80.8819 O   0  0  0  0  0  0  0  0  0  0  0  0
   13.2184   55.4878   82.5943 O   0  0  0  0  0  0  0  0  0  0  0  0
   12.6989   57.1855   80.8278 C   0  0  0  0  0  0  0  0  0  0  0  0
   14.3908   58.1295   79.7279 O   0  0  0  0  0  0  0  0  0  0  0  0
   15.5514   56.6643   83.2254 O   0  0  0  0  0  0  0  0  0  0  0  0
   10.0491   59.6354   81.8179 O   0  0  0  0  0  0  0  0  0  0  0  0
   12.0863   59.0580   79.1323 O   0  0  0  0  0  0  0  0  0  0  0  0
   11.0598   58.4438   80.3574 C   0  0  0  0  0  0  0  0  0  0  0  0
   10.9469   57.2949   81.5888 O   0  0  0  0  0  0  0  0  0  0  0  0
    9.1576   58.1365   81.1219 C   0  0  0  0  0  0  0  0  0  0  0  0
  2  1  1  0
  3  1  1  0
  7  2  1  0
  8  3  1  0
  9  3  1  0
  9  5  1  0
 10  2  1  0
 10  5  1  0
 11  1  1  0
 13  5  1  0
 14 13  1  0
 15 14  2  0
 16  4  1  0
 16  6  1  0
 16 12  1  0
 16 14  1  0
M  END
>  <ID>  (1) 
conformer_0

$$$$
