
     RDKit          3D

 16 15  0  0  0  0  0  0  0  0999 V2000
   15.6073   57.4602   80.3549 C   0  0  0  0  0  0  0  0  0  0  0  0
   12.3402   57.3367   81.1185 C   0  0  0  0  0  0  0  0  0  0  0  0
   13.4405   58.0880   80.2278 C   0  0  0  0  0  0  0  0  0  0  0  0
    9.3794   57.3772   79.4147 C   0  0  0  0  0  0  0  0  0  0  0  0
    9.2785   59.1237   81.5185 O   0  0  0  0  0  0  0  0  0  0  0  0
   14.0149   58.4579   79.8598 O   0  0  0  0  0  0  0  0  0  0  0  0
   11.1572   58.4785   79.7690 C   0  0  0  0  0  0  0  0  0  0  0  0
   11.2252   59.6348   82.4238 O   0  0  0  0  0  0  0  0  0  0  0  0
   13.1276   55.5011   82.4350 O   0  0  0  0  0  0  0  0  0  0  0  0
   16.6476   57.5570   81.2405 O   0  0  0  0  0  0  0  0  0  0  0  0
   10.0761   58.8940   81.0955 C   0  0  0  0  0  0  0  0  0  0  0  0
   11.4906   59.1233   79.6657 O   0  0  0  0  0  0  0  0  0  0  0  0
   14.9461   56.9023   81.3941 C   0  0  0  0  0  0  0  0  0  0  0  0
   15.0300   56.9019   82.7243 O   0  0  0  0  0  0  0  0  0  0  0  0
   10.6407   57.4512   81.4317 O   0  0  0  0  0  0  0  0  0  0  0  0
   13.6191   56.1121   81.4867 C   0  0  0  0  0  0  0  0  0  0  0  0
  3  2  2  0
  6  3  2  0
  7  4  1  0
 10  1  1  0
 11  5  1  0
 11  7  1  0
 11  8  1  0
 12  7  1  0
 13  1  1  0
 14 13  1  0
 15  2  1  0
 15 11  1  0
 16  2  1  0
 16  9  1  0
 16 13  1  0
M  END
>  <ID>  (1) 
conformer_0

$$$$
