
     RDKit          3D

 13 12  0  0  0  0  0  0  0  0999 V2000
   13.7322   58.5314   79.7567 C   0  0  0  0  0  0  0  0  0  0  0  0
   15.5917   57.0934   80.8759 C   0  0  0  0  0  0  0  0  0  0  0  0
   10.1041   58.3380   80.9979 C   0  0  0  0  0  0  0  0  0  0  0  0
    9.1375   58.0300   81.7671 O   0  0  0  0  0  0  0  0  0  0  0  0
   11.0601   59.3226   81.9800 O   0  0  0  0  0  0  0  0  0  0  0  0
   16.7990   57.4250   80.6961 O   0  0  0  0  0  0  0  0  0  0  0  0
   14.6707   58.1029   80.2487 O   0  0  0  0  0  0  0  0  0  0  0  0
   11.7447   58.2575   80.1757 C   0  0  0  0  0  0  0  0  0  0  0  0
   11.7407   58.9594   79.2685 O   0  0  0  0  0  0  0  0  0  0  0  0
   12.4072   55.7266   82.3528 O   0  0  0  0  0  0  0  0  0  0  0  0
   13.0937   56.8794   80.8996 C   0  0  0  0  0  0  0  0  0  0  0  0
   14.5553   56.2352   81.6760 C   0  0  0  0  0  0  0  0  0  0  0  0
   14.4865   56.0942   82.9215 O   0  0  0  0  0  0  0  0  0  0  0  0
  4  3  1  0
  5  3  1  0
  6  2  1  0
  7  1  1  0
  7  2  1  0
  8  1  1  0
  8  3  1  0
  9  8  2  0
 11 10  1  0
 12  2  1  0
 12 11  1  0
 13 12  1  0
M  END
>  <ID>  (1) 
conformer_0

$$$$
