
     RDKit          3D

 16 16  0  0  0  0  0  0  0  0999 V2000
   13.3168   58.5133   79.8439 C   0  0  0  0  0  0  0  0  0  0  0  0
   14.8879   57.9865   80.3590 C   0  0  0  0  0  0  0  0  0  0  0  0
   10.1615   57.8068   80.9697 C   0  0  0  0  0  0  0  0  0  0  0  0
    9.3454   57.5631   79.2288 C   0  0  0  0  0  0  0  0  0  0  0  0
    9.1727   57.6882   81.6970 O   0  0  0  0  0  0  0  0  0  0  0  0
   10.8905   59.8964   82.4455 O   0  0  0  0  0  0  0  0  0  0  0  0
   16.6809   57.3946   80.7928 O   0  0  0  0  0  0  0  0  0  0  0  0
   12.4928   57.0266   81.0744 C   0  0  0  0  0  0  0  0  0  0  0  0
   12.8281   55.6025   82.6646 O   0  0  0  0  0  0  0  0  0  0  0  0
   11.5278   58.8695   79.7937 O   0  0  0  0  0  0  0  0  0  0  0  0
   14.4634   58.2212   79.7445 O   0  0  0  0  0  0  0  0  0  0  0  0
   15.1717   56.5058   82.8134 O   0  0  0  0  0  0  0  0  0  0  0  0
   13.9115   56.6699   81.5564 C   0  0  0  0  0  0  0  0  0  0  0  0
   15.3952   56.6597   81.4257 C   0  0  0  0  0  0  0  0  0  0  0  0
   10.9791   57.0398   81.5504 O   0  0  0  0  0  0  0  0  0  0  0  0
   11.3164   58.9625   80.8049 C   0  0  0  0  0  0  0  0  0  0  0  0
  4  3  1  0
  5  3  1  0
 10  1  1  0
 11  1  1  0
 11  2  1  0
 13  8  1  0
 13  9  1  0
 14  2  1  0
 14  7  1  0
 14 12  1  0
 14 13  1  0
 15  3  1  0
 15  8  1  0
 16  3  1  0
 16  6  1  0
 16 10  1  0
M  END
>  <ID>  (1) 
conformer_0

$$$$
