
     RDKit          3D

 15 15  0  0  0  0  0  0  0  0999 V2000
   12.9156   58.6542   79.6842 C   0  0  0  0  0  0  0  0  0  0  0  0
   12.4651   57.1195   80.9544 C   0  0  0  0  0  0  0  0  0  0  0  0
   10.9034   58.5602   80.0876 C   0  0  0  0  0  0  0  0  0  0  0  0
    9.5891   57.6610   79.3734 C   0  0  0  0  0  0  0  0  0  0  0  0
   16.5844   57.4489   80.8251 O   0  0  0  0  0  0  0  0  0  0  0  0
    9.0621   57.9410   81.7764 O   0  0  0  0  0  0  0  0  0  0  0  0
    9.8803   58.4098   81.1650 C   0  0  0  0  0  0  0  0  0  0  0  0
   13.4726   58.7142   79.4486 O   0  0  0  0  0  0  0  0  0  0  0  0
   15.2266   56.5913   83.0941 O   0  0  0  0  0  0  0  0  0  0  0  0
   10.6313   59.5309   81.7843 O   0  0  0  0  0  0  0  0  0  0  0  0
   11.6232   57.0504   81.0423 O   0  0  0  0  0  0  0  0  0  0  0  0
   12.8044   55.9679   82.8337 O   0  0  0  0  0  0  0  0  0  0  0  0
   13.9518   56.3346   81.4934 C   0  0  0  0  0  0  0  0  0  0  0  0
   15.4000   56.3993   81.5428 C   0  0  0  0  0  0  0  0  0  0  0  0
   14.9851   57.6202   80.3142 C   0  0  0  0  0  0  0  0  0  0  0  0
  2  1  1  0
  4  3  1  0
  7  3  1  0
  7  4  1  0
  7  6  1  0
  8  1  2  0
 10  7  1  0
 11  2  1  0
 11  3  1  0
 13  2  1  0
 13 12  1  0
 14  9  1  0
 14 13  1  0
 15  5  1  0
 15 14  1  0
M  END
>  <ID>  (1) 
conformer_0

$$$$
