
     RDKit          3D

 16 17  0  0  0  0  0  0  0  0999 V2000
   16.0642   57.4333   80.3214 C   0  0  0  0  0  0  0  0  0  0  0  0
   15.4616   56.5072   81.7874 C   0  0  0  0  0  0  0  0  0  0  0  0
   13.9503   57.9908   80.2297 C   0  0  0  0  0  0  0  0  0  0  0  0
   10.0596   57.9789   80.3628 C   0  0  0  0  0  0  0  0  0  0  0  0
    9.2641   57.9184   81.5537 O   0  0  0  0  0  0  0  0  0  0  0  0
   11.0241   59.8427   82.4418 O   0  0  0  0  0  0  0  0  0  0  0  0
   16.9056   57.5937   80.4565 O   0  0  0  0  0  0  0  0  0  0  0  0
   11.1260   58.7940   79.6792 O   0  0  0  0  0  0  0  0  0  0  0  0
    9.1471   56.9746   79.4204 C   0  0  0  0  0  0  0  0  0  0  0  0
   12.6169   55.9740   82.5568 O   0  0  0  0  0  0  0  0  0  0  0  0
   14.3992   57.8695   80.0874 O   0  0  0  0  0  0  0  0  0  0  0  0
   10.3326   59.4219   81.5597 C   0  0  0  0  0  0  0  0  0  0  0  0
   14.8440   56.5903   82.9103 O   0  0  0  0  0  0  0  0  0  0  0  0
   12.3916   57.0469   80.9785 C   0  0  0  0  0  0  0  0  0  0  0  0
   13.8364   56.3935   81.4524 C   0  0  0  0  0  0  0  0  0  0  0  0
   12.1214   58.4074   79.9165 C   0  0  0  0  0  0  0  0  0  0  0  0
  2  1  1  0
  5  4  1  0
  7  1  1  0
  8  4  1  0
  9  4  1  0
 11  1  1  0
 11  3  1  0
 12  4  1  0
 12  5  1  0
 12  6  1  0
 13  2  1  0
 15  2  1  0
 15 10  1  0
 15 14  1  0
 16  3  1  0
 16  8  1  0
 16 14  2  0
M  END
>  <ID>  (1) 
conformer_0

$$$$
