
     RDKit          3D

 16 16  0  0  0  0  0  0  0  0999 V2000
   12.5411   57.2380   80.8933 C   0  0  0  0  0  0  0  0  0  0  0  0
   13.3165   58.4526   79.6070 C   0  0  0  0  0  0  0  0  0  0  0  0
    9.5677   56.9569   79.3854 C   0  0  0  0  0  0  0  0  0  0  0  0
   10.1138   58.1386   80.9782 C   0  0  0  0  0  0  0  0  0  0  0  0
    9.6971   57.9299   81.7562 O   0  0  0  0  0  0  0  0  0  0  0  0
   16.9117   57.1418   80.1967 O   0  0  0  0  0  0  0  0  0  0  0  0
   14.4645   58.4536   79.9558 O   0  0  0  0  0  0  0  0  0  0  0  0
   11.0835   59.7678   82.5032 O   0  0  0  0  0  0  0  0  0  0  0  0
   12.6183   55.7982   82.5540 O   0  0  0  0  0  0  0  0  0  0  0  0
   11.4988   58.9096   80.6012 C   0  0  0  0  0  0  0  0  0  0  0  0
   11.9451   58.7494   79.5032 O   0  0  0  0  0  0  0  0  0  0  0  0
   14.5933   56.5106   82.8131 O   0  0  0  0  0  0  0  0  0  0  0  0
   13.6534   56.5900   81.3721 C   0  0  0  0  0  0  0  0  0  0  0  0
   15.3533   56.4062   81.3264 C   0  0  0  0  0  0  0  0  0  0  0  0
   15.4318   57.4709   80.3351 C   0  0  0  0  0  0  0  0  0  0  0  0
    9.1975   58.3507   79.3803 C   0  0  0  0  0  0  0  0  0  0  0  0
  2  1  1  0
  5  4  2  0
  7  2  1  0
 10  4  1  0
 10  8  1  0
 11  2  1  0
 11 10  1  0
 13  1  1  0
 13  9  1  0
 14 12  1  0
 14 13  1  0
 15  6  1  0
 15  7  1  0
 15 14  1  0
 16  3  1  0
 16  4  1  0
M  END
>  <ID>  (1) 
conformer_0

$$$$
