
     RDKit          3D

 12 11  0  0  0  0  0  0  0  0999 V2000
   13.9431   56.8485   81.3572 C   0  0  0  0  0  0  0  0  0  0  0  0
   15.2474   56.9138   81.1440 C   0  0  0  0  0  0  0  0  0  0  0  0
   10.2531   58.4583   81.0049 C   0  0  0  0  0  0  0  0  0  0  0  0
    9.5566   57.0839   79.5540 C   0  0  0  0  0  0  0  0  0  0  0  0
    9.2206   58.0807   81.8286 O   0  0  0  0  0  0  0  0  0  0  0  0
   10.9646   59.9691   82.2400 O   0  0  0  0  0  0  0  0  0  0  0  0
   14.4824   58.1076   79.4221 O   0  0  0  0  0  0  0  0  0  0  0  0
   16.7058   57.3228   80.8829 O   0  0  0  0  0  0  0  0  0  0  0  0
   11.9836   58.1314   80.5135 C   0  0  0  0  0  0  0  0  0  0  0  0
   14.7091   56.0447   82.9176 O   0  0  0  0  0  0  0  0  0  0  0  0
   12.3137   55.8016   82.2555 O   0  0  0  0  0  0  0  0  0  0  0  0
   13.3838   58.4027   79.7651 C   0  0  0  0  0  0  0  0  0  0  0  0
  2  1  1  0
  4  3  1  0
  5  3  1  0
  6  3  1  0
  8  2  1  0
  9  3  1  0
 10  1  1  0
 11  1  1  0
 12  1  1  0
 12  7  1  0
 12  9  1  0
M  END
>  <ID>  (1) 
conformer_0

$$$$
