
     RDKit          3D

 14 15  0  0  0  0  0  0  0  0999 V2000
   13.1561   56.8292   81.2060 C   0  0  0  0  0  0  0  0  0  0  0  0
   14.5985   56.3102   81.4177 C   0  0  0  0  0  0  0  0  0  0  0  0
   11.7160   58.2032   80.2941 C   0  0  0  0  0  0  0  0  0  0  0  0
    9.6407   57.7031   79.5951 C   0  0  0  0  0  0  0  0  0  0  0  0
    9.4344   57.9216   81.8376 O   0  0  0  0  0  0  0  0  0  0  0  0
    9.8898   58.6562   81.1817 C   0  0  0  0  0  0  0  0  0  0  0  0
   11.7487   57.2085   80.7332 O   0  0  0  0  0  0  0  0  0  0  0  0
   10.8754   59.6701   82.4554 O   0  0  0  0  0  0  0  0  0  0  0  0
   16.6958   57.5295   81.0044 O   0  0  0  0  0  0  0  0  0  0  0  0
   14.6726   57.8791   79.5898 O   0  0  0  0  0  0  0  0  0  0  0  0
   12.9800   55.7350   82.7769 O   0  0  0  0  0  0  0  0  0  0  0  0
   13.5811   58.3179   80.1043 C   0  0  0  0  0  0  0  0  0  0  0  0
   15.4211   57.4373   80.5159 C   0  0  0  0  0  0  0  0  0  0  0  0
   15.0964   56.6843   82.6511 O   0  0  0  0  0  0  0  0  0  0  0  0
  2  1  1  0
  6  3  1  0
  6  4  1  0
  6  5  1  0
  7  1  1  0
  7  3  1  0
  8  6  1  0
 11  1  1  0
 12  1  1  0
 12  3  1  0
 12 10  1  0
 13  2  1  0
 13  9  1  0
 13 10  1  0
 14  2  1  0
M  END
>  <ID>  (1) 
conformer_0

$$$$
