
     RDKit          3D

 17 16  0  0  0  0  0  0  0  0999 V2000
   15.4645   56.2216   81.7212 C   0  0  0  0  0  0  0  0  0  0  0  0
   12.1956   57.4102   81.0519 C   0  0  0  0  0  0  0  0  0  0  0  0
    8.8620   57.5446   79.3517 C   0  0  0  0  0  0  0  0  0  0  0  0
   11.0566   59.0732   80.4582 C   0  0  0  0  0  0  0  0  0  0  0  0
   10.9137   56.7219   80.7636 O   0  0  0  0  0  0  0  0  0  0  0  0
   16.9052   57.1950   80.5014 O   0  0  0  0  0  0  0  0  0  0  0  0
   14.9583   58.4471   79.8322 O   0  0  0  0  0  0  0  0  0  0  0  0
   11.1784   59.5052   82.0169 O   0  0  0  0  0  0  0  0  0  0  0  0
   14.0954   56.3142   81.8357 C   0  0  0  0  0  0  0  0  0  0  0  0
   13.0225   55.7705   82.9165 O   0  0  0  0  0  0  0  0  0  0  0  0
   11.7481   58.9766   79.2788 O   0  0  0  0  0  0  0  0  0  0  0  0
    9.5966   57.5351   80.3359 C   0  0  0  0  0  0  0  0  0  0  0  0
   12.9428   58.8045   79.9655 C   0  0  2  0  0  0  0  0  0  0  0  0
    9.3792   57.4087   81.8599 O   0  0  0  0  0  0  0  0  0  0  0  0
   15.0179   56.4062   83.2003 O   0  0  0  0  0  0  0  0  0  0  0  0
   13.9720   57.6061   80.6223 C   0  0  0  0  0  0  0  0  0  0  0  0
   15.7384   57.5744   80.1711 C   0  0  0  0  0  0  0  0  0  0  0  0
  5  2  1  0
  8  4  1  0
  9  1  1  0
 10  9  1  0
 11  4  1  0
 12  3  1  0
 12  5  1  0
 13  2  1  1
 13 11  1  0
 14 12  2  0
 15  1  1  0
 16  7  1  0
 16  9  2  3
 16 13  1  0
 17  6  1  0
 17  7  1  0
M  END
>  <ID>  (1) 
conformer_0

$$$$
