
     RDKit          3D

 15 14  0  0  0  0  0  0  0  0999 V2000
   15.1652   56.5829   81.4181 C   0  0  0  0  0  0  0  0  0  0  0  0
   15.0526   57.8158   80.2873 C   0  0  0  0  0  0  0  0  0  0  0  0
   13.3336   58.5730   79.9473 C   0  0  0  0  0  0  0  0  0  0  0  0
    8.8962   57.7315   82.0069 O   0  0  0  0  0  0  0  0  0  0  0  0
   11.2719   58.5789   80.0991 C   0  0  0  0  0  0  0  0  0  0  0  0
   16.5576   57.4942   80.6249 O   0  0  0  0  0  0  0  0  0  0  0  0
    9.1899   57.9487   79.7543 C   0  0  0  0  0  0  0  0  0  0  0  0
   13.4342   58.8904   79.4705 O   0  0  0  0  0  0  0  0  0  0  0  0
   10.4227   59.6583   81.5920 O   0  0  0  0  0  0  0  0  0  0  0  0
   13.0018   55.5328   82.2500 O   0  0  0  0  0  0  0  0  0  0  0  0
   13.7996   56.6052   81.3651 C   0  0  0  0  0  0  0  0  0  0  0  0
   10.9651   57.0592   81.1834 O   0  0  0  0  0  0  0  0  0  0  0  0
    9.4674   58.1182   81.0673 C   0  0  0  0  0  0  0  0  0  0  0  0
   14.7905   56.2921   83.0296 O   0  0  0  0  0  0  0  0  0  0  0  0
   12.2456   57.1639   80.8089 C   0  0  0  0  0  0  0  0  0  0  0  0
  2  1  1  0
  3  2  1  0
  6  2  1  0
  8  3  1  0
 11  1  1  0
 11 10  1  0
 13  4  1  0
 13  7  1  0
 13  9  1  0
 13 12  1  0
 14  1  1  0
 15  5  1  0
 15 11  1  0
 15 12  1  0
M  END
>  <ID>  (1) 
conformer_0

$$$$
