
     RDKit          3D

 15 15  0  0  0  0  0  0  0  0999 V2000
   14.6663   55.6933   82.2762 C   0  0  0  0  0  0  0  0  0  0  0  0
   12.9118   56.6440   81.2380 C   0  0  0  0  0  0  0  0  0  0  0  0
   11.7877   58.0242   80.6766 C   0  0  0  0  0  0  0  0  0  0  0  0
    8.9333   58.4197   81.6076 O   0  0  0  0  0  0  0  0  0  0  0  0
    9.2764   57.8103   79.2943 C   0  0  0  0  0  0  0  0  0  0  0  0
   14.5429   57.8181   79.7311 O   0  0  0  0  0  0  0  0  0  0  0  0
    9.9474   58.5904   80.7243 C   0  0  0  0  0  0  0  0  0  0  0  0
   11.9778   59.3065   79.5617 O   0  0  0  0  0  0  0  0  0  0  0  0
   15.7758   57.4314   82.1151 O   0  0  0  0  0  0  0  0  0  0  0  0
   12.0402   55.7703   81.9970 O   0  0  0  0  0  0  0  0  0  0  0  0
   10.6739   59.8619   82.4025 O   0  0  0  0  0  0  0  0  0  0  0  0
   14.7938   56.7109   81.4613 C   0  0  0  0  0  0  0  0  0  0  0  0
   14.1046   55.4253   83.2255 O   0  0  0  0  0  0  0  0  0  0  0  0
   14.1864   57.9412   80.5245 C   0  0  0  0  0  0  0  0  0  0  0  0
   12.8623   58.9838   79.4410 C   0  0  0  0  0  0  0  0  0  0  0  0
  3  2  1  0
  7  3  1  0
  7  4  1  0
  7  5  1  0
  8  3  1  0
 10  2  1  0
 11  7  1  0
 12  1  1  0
 12  2  1  0
 12  9  1  0
 13  1  1  0
 14  2  1  0
 14  6  1  0
 14 12  1  0
 15  8  1  0
M  END
>  <ID>  (1) 
conformer_0

$$$$
