
     RDKit          3D

 17 18  0  0  0  0  0  0  0  0999 V2000
   12.4539   57.3794   80.8818 C   0  0  0  0  0  0  0  0  0  0  0  0
   15.0948   56.3082   81.9974 C   0  0  0  0  0  0  0  0  0  0  0  0
   10.4339   58.2800   80.1261 C   0  0  0  0  0  0  0  0  0  0  0  0
    8.8802   57.4755   81.9721 O   0  0  0  0  0  0  0  0  0  0  0  0
   12.6317   58.3992   79.5837 C   0  0  0  0  0  0  0  0  0  0  0  0
   11.6004   59.0767   79.3394 O   0  0  0  0  0  0  0  0  0  0  0  0
   14.9571   58.1308   79.8410 O   0  0  0  0  0  0  0  0  0  0  0  0
   10.6786   58.8616   82.4407 O   0  0  0  0  0  0  0  0  0  0  0  0
   16.4340   57.2686   81.4546 O   0  0  0  0  0  0  0  0  0  0  0  0
    9.4820   58.7538   81.3064 C   0  0  0  0  0  0  0  0  0  0  0  0
   12.9967   55.6632   82.4225 O   0  0  0  0  0  0  0  0  0  0  0  0
    9.2872   57.9341   79.4141 C   0  0  0  0  0  0  0  0  0  0  0  0
   11.2045   57.2799   80.7882 O   0  0  0  0  0  0  0  0  0  0  0  0
   15.0137   56.3766   83.2403 O   0  0  0  0  0  0  0  0  0  0  0  0
   13.8312   56.2680   81.3644 C   0  0  0  0  0  0  0  0  0  0  0  0
   14.2951   59.1073   79.0526 C   0  0  0  0  0  0  0  0  0  0  0  0
   14.7602   57.5911   80.5882 C   0  0  0  0  0  0  0  0  0  0  0  0
  5  1  1  0
  6  3  1  0
  6  5  1  0
  9  2  1  0
 10  3  1  0
 10  4  1  0
 10  8  1  0
 12  3  1  0
 13  1  1  0
 13  3  1  0
 14  2  1  0
 15  1  1  0
 15  2  1  0
 15 11  1  0
 16  5  1  0
 16  7  1  0
 17  7  1  0
 17 15  1  0
M  END
>  <ID>  (1) 
conformer_0

$$$$
