
     RDKit          3D

 16 16  0  0  0  0  0  0  0  0999 V2000
   15.3829   57.3662   80.6938 C   0  0  0  0  0  0  0  0  0  0  0  0
   13.0196   57.2120   81.0967 C   0  0  0  0  0  0  0  0  0  0  0  0
   13.2522   58.3249   79.8732 C   0  0  0  0  0  0  0  0  0  0  0  0
    9.1607   57.7974   79.4087 C   0  0  0  0  0  0  0  0  0  0  0  0
   11.2341   58.1785   80.3946 C   0  0  0  0  0  0  0  0  0  0  0  0
    9.2548   57.7837   81.8072 O   0  0  0  0  0  0  0  0  0  0  0  0
   10.9426   59.6862   82.3519 O   0  0  0  0  0  0  0  0  0  0  0  0
   14.6076   58.0206   79.7773 O   0  0  0  0  0  0  0  0  0  0  0  0
   16.7002   57.5098   80.6240 O   0  0  0  0  0  0  0  0  0  0  0  0
   13.3179   55.1543   82.5927 O   0  0  0  0  0  0  0  0  0  0  0  0
   12.1320   58.7753   79.2954 O   0  0  0  0  0  0  0  0  0  0  0  0
   15.1729   56.7179   82.9301 O   0  0  0  0  0  0  0  0  0  0  0  0
   13.8165   56.1910   81.6317 C   0  0  0  0  0  0  0  0  0  0  0  0
   15.4048   56.1960   81.6127 C   0  0  0  0  0  0  0  0  0  0  0  0
   10.9505   57.1524   80.6900 O   0  0  0  0  0  0  0  0  0  0  0  0
    9.7697   58.9074   80.9693 C   0  0  0  0  0  0  0  0  0  0  0  0
  3  2  1  0
  8  1  1  0
  8  3  1  0
  9  1  1  0
 11  3  1  0
 11  5  1  0
 13  2  1  0
 13 10  1  0
 14  1  1  0
 14 12  1  0
 14 13  1  0
 15  5  2  0
 16  4  1  0
 16  5  1  0
 16  6  1  0
 16  7  1  0
M  END
>  <ID>  (1) 
conformer_0

$$$$
