
     RDKit          3D

 16 18  0  0  0  0  0  0  0  0999 V2000
   12.3338   57.5407   80.6725 C   0  0  0  0  0  0  0  0  0  0  0  0
   13.6364   56.5671   81.4273 C   0  0  0  0  0  0  0  0  0  0  0  0
   13.4160   58.4654   79.6704 C   0  0  0  0  0  0  0  0  0  0  0  0
    8.9342   57.9094   81.7216 O   0  0  0  0  0  0  0  0  0  0  0  0
   16.3894   57.4188   81.1463 O   0  0  0  0  0  0  0  0  0  0  0  0
   10.6900   59.5557   81.8601 O   0  0  0  0  0  0  0  0  0  0  0  0
   11.1579   58.6876   80.0883 C   0  0  0  0  0  0  0  0  0  0  0  0
   14.2214   58.3728   79.7688 O   0  0  0  0  0  0  0  0  0  0  0  0
   14.8782   56.0598   83.2520 O   0  0  0  0  0  0  0  0  0  0  0  0
    9.7856   57.8083   79.1708 C   0  0  0  0  0  0  0  0  0  0  0  0
    9.7670   58.3826   81.1097 C   0  0  0  0  0  0  0  0  0  0  0  0
   12.6389   56.1197   82.5671 O   0  0  0  0  0  0  0  0  0  0  0  0
   11.1837   57.0697   80.9205 O   0  0  0  0  0  0  0  0  0  0  0  0
   12.1475   59.2369   79.1455 O   0  0  0  0  0  0  0  0  0  0  0  0
   15.0691   56.0445   82.0987 C   0  0  0  0  0  0  0  0  0  0  0  0
   15.1070   57.1878   80.6246 C   0  0  0  0  0  0  0  0  0  0  0  0
  2  1  1  0
  3  1  1  0
  7  1  1  0
  8  3  1  0
 10  7  1  0
 11  4  2  0
 11  6  1  0
 11  7  1  0
 12  2  1  0
 13  1  1  0
 14  3  1  0
 14  7  1  0
 15  2  1  0
 15  9  1  0
 16  2  1  0
 16  5  1  0
 16  8  1  0
 16 15  1  0
M  END
>  <ID>  (1) 
conformer_0

$$$$
