
     RDKit          3D

 14 14  0  0  0  0  0  0  0  0999 V2000
   13.1621   58.7328   79.6258 C   0  0  0  0  0  0  0  0  0  0  0  0
   15.3437   57.1164   80.6950 C   0  0  0  0  0  0  0  0  0  0  0  0
   11.0843   58.3950   80.5519 C   0  0  0  0  0  0  0  0  0  0  0  0
    9.1974   57.5024   79.3070 C   0  0  0  0  0  0  0  0  0  0  0  0
   15.1197   56.3522   81.5602 C   0  0  0  0  0  0  0  0  0  0  0  0
   16.8556   57.4357   80.8414 O   0  0  0  0  0  0  0  0  0  0  0  0
   10.4072   59.8475   82.3159 O   0  0  0  0  0  0  0  0  0  0  0  0
   11.0447   59.1152   79.4147 O   0  0  0  0  0  0  0  0  0  0  0  0
   12.7270   55.5804   82.6993 O   0  0  0  0  0  0  0  0  0  0  0  0
   11.4194   56.7125   80.9306 O   0  0  0  0  0  0  0  0  0  0  0  0
    9.7357   58.8585   81.0998 C   0  0  0  0  0  0  0  0  0  0  0  0
   15.1084   56.1612   82.8786 O   0  0  0  0  0  0  0  0  0  0  0  0
   12.8997   57.7238   80.7870 C   0  0  0  0  0  0  0  0  0  0  0  0
   13.1737   56.2928   81.4671 C   0  0  0  0  0  0  0  0  0  0  0  0
  5  2  1  0
  6  2  1  0
  8  3  1  0
 10  3  1  0
 11  3  1  0
 11  4  1  0
 11  7  1  0
 12  5  1  0
 13  1  1  0
 13  3  1  0
 13 10  1  0
 14  5  1  0
 14  9  1  0
 14 13  1  0
M  END
>  <ID>  (1) 
conformer_0

$$$$
