
     RDKit          3D

 15 15  0  0  0  0  0  0  0  0999 V2000
   14.1366   56.2222   81.6088 C   0  0  0  0  0  0  0  0  0  0  0  0
   16.1107   57.0823   80.7697 C   0  0  0  0  0  0  0  0  0  0  0  0
   14.4622   57.3948   80.7351 C   0  0  0  0  0  0  0  0  0  0  0  0
    9.6162   57.6647   79.7016 C   0  0  0  0  0  0  0  0  0  0  0  0
   12.4968   56.9056   81.2344 C   0  0  0  0  0  0  0  0  0  0  0  0
    8.9918   58.4056   81.8008 O   0  0  0  0  0  0  0  0  0  0  0  0
   11.8547   58.8649   79.4453 O   0  0  0  0  0  0  0  0  0  0  0  0
   12.7572   55.6035   82.4439 O   0  0  0  0  0  0  0  0  0  0  0  0
   10.5656   59.7989   82.4753 O   0  0  0  0  0  0  0  0  0  0  0  0
   14.5088   57.9638   79.6990 O   0  0  0  0  0  0  0  0  0  0  0  0
   15.0179   56.8865   82.8058 O   0  0  0  0  0  0  0  0  0  0  0  0
    9.6604   58.6707   81.1152 C   0  0  0  0  0  0  0  0  0  0  0  0
   16.5865   57.2462   80.4113 O   0  0  0  0  0  0  0  0  0  0  0  0
   11.3863   58.1358   80.3921 C   0  0  0  0  0  0  0  0  0  0  0  0
   13.0749   58.5894   79.5693 C   0  0  0  0  0  0  0  0  0  0  0  0
  3  1  1  0
  3  2  1  0
  5  1  1  0
  8  1  1  0
 10  3  1  0
 11  1  1  0
 12  4  1  0
 12  6  1  0
 12  9  1  0
 13  2  1  0
 14  5  1  0
 14  7  1  0
 14 12  1  0
 15  7  1  0
 15 10  1  0
M  END
>  <ID>  (1) 
conformer_0

$$$$
