
     RDKit          3D

 14 15  0  0  0  0  0  0  0  0999 V2000
   14.9453   56.3141   81.9733 C   0  0  0  0  0  0  0  0  0  0  0  0
   15.0267   57.3134   80.7750 C   0  0  0  0  0  0  0  0  0  0  0  0
    9.6441   57.5625   79.3787 C   0  0  0  0  0  0  0  0  0  0  0  0
   13.5874   58.2859   80.1494 C   0  0  0  0  0  0  0  0  0  0  0  0
    9.2426   57.9620   81.6331 O   0  0  0  0  0  0  0  0  0  0  0  0
   16.3439   57.6231   80.9403 O   0  0  0  0  0  0  0  0  0  0  0  0
   11.1746   59.8074   81.7887 O   0  0  0  0  0  0  0  0  0  0  0  0
   13.0178   55.7654   82.6482 O   0  0  0  0  0  0  0  0  0  0  0  0
   12.8003   58.7281   79.2585 O   0  0  0  0  0  0  0  0  0  0  0  0
   11.7957   58.5502   80.4887 C   0  0  0  0  0  0  0  0  0  0  0  0
   15.2278   56.6757   83.0628 O   0  0  0  0  0  0  0  0  0  0  0  0
   13.1545   56.9454   81.2563 C   0  0  0  0  0  0  0  0  0  0  0  0
   11.5430   57.1961   81.1395 O   0  0  0  0  0  0  0  0  0  0  0  0
   10.2961   58.1635   80.7995 C   0  0  0  0  0  0  0  0  0  0  0  0
  2  1  1  0
  4  2  1  0
  6  2  1  0
  9  4  1  0
 10  7  1  0
 10  9  1  0
 11  1  1  0
 12  2  1  0
 12  4  1  0
 12  8  1  0
 13 10  1  0
 14  3  1  0
 14  5  1  0
 14 10  1  0
 14 13  1  0
M  END
>  <ID>  (1) 
conformer_0

$$$$
