
     RDKit          3D

 15 15  0  0  0  0  0  0  0  0999 V2000
   14.9432   56.6462   81.1762 C   0  0  0  0  0  0  0  0  0  0  0  0
   12.9823   58.4153   80.1023 C   0  0  0  0  0  0  0  0  0  0  0  0
   10.2007   58.1362   81.2417 C   0  0  0  0  0  0  0  0  0  0  0  0
   14.9004   57.9354   80.1966 C   0  0  0  0  0  0  0  0  0  0  0  0
    9.2951   58.1074   81.7324 O   0  0  0  0  0  0  0  0  0  0  0  0
   11.3384   59.9498   82.1227 O   0  0  0  0  0  0  0  0  0  0  0  0
   16.4227   57.5722   80.9348 O   0  0  0  0  0  0  0  0  0  0  0  0
   12.1922   59.0183   79.2638 O   0  0  0  0  0  0  0  0  0  0  0  0
    9.7752   57.6408   79.4964 C   0  0  0  0  0  0  0  0  0  0  0  0
   12.7791   55.4291   82.2726 O   0  0  0  0  0  0  0  0  0  0  0  0
   12.3820   57.0731   81.0426 C   0  0  0  0  0  0  0  0  0  0  0  0
   13.8037   55.9994   81.4564 C   0  0  0  0  0  0  0  0  0  0  0  0
   15.0061   56.6374   82.7131 O   0  0  0  0  0  0  0  0  0  0  0  0
   13.9394   58.2097   79.5713 O   0  0  0  0  0  0  0  0  0  0  0  0
   11.2014   58.8921   80.5351 C   0  0  0  0  0  0  0  0  0  0  0  0
  4  1  1  0
  5  3  1  0
  7  4  1  0
  8  2  1  0
  9  3  1  0
 11  2  1  0
 12  1  1  0
 12 10  1  0
 12 11  1  0
 13  1  1  0
 14  2  1  0
 14  4  1  0
 15  3  1  0
 15  6  1  0
 15  8  1  0
M  END
>  <ID>  (1) 
conformer_0

$$$$
