
     RDKit          3D

 17 20  0  0  0  0  0  0  0  0999 V2000
   15.4309   56.5178   81.8881 C   0  0  0  0  0  0  0  0  0  0  0  0
   13.8800   56.7866   81.2736 C   0  0  0  0  0  0  0  0  0  0  0  0
   10.9046   58.3782   80.0698 C   0  0  0  0  0  0  0  0  0  0  0  0
    8.9806   57.4122   82.0687 O   0  0  0  0  0  0  0  0  0  0  0  0
   16.8312   57.5767   80.7330 O   0  0  0  0  0  0  0  0  0  0  0  0
   13.5853   55.3281   82.2586 O   0  0  0  0  0  0  0  0  0  0  0  0
   11.8774   58.8631   79.5942 O   0  0  0  0  0  0  0  0  0  0  0  0
    9.3293   57.9853   79.4405 C   0  0  0  0  0  0  0  0  0  0  0  0
    9.6292   58.0255   81.2803 C   0  0  0  0  0  0  0  0  0  0  0  0
    9.9486   59.1062   81.9789 O   0  0  0  0  0  0  0  0  0  0  0  0
   14.4730   57.9860   79.6991 O   0  0  0  0  0  0  0  0  0  0  0  0
   12.4181   57.2885   80.7750 C   0  0  0  0  0  0  0  0  0  0  0  0
   10.8050   56.8885   80.7095 O   0  0  0  0  0  0  0  0  0  0  0  0
   15.5071   57.2046   82.5019 O   0  0  0  0  0  0  0  0  0  0  0  0
   13.3863   58.5017   79.6508 C   0  0  0  0  0  0  0  0  0  0  0  0
   12.1586   56.8203   82.3184 O   0  0  0  0  0  0  0  0  0  0  0  0
   15.2021   57.6470   80.4052 C   0  0  0  0  0  0  0  0  0  0  0  0
  2  1  1  0
  6  2  1  0
  7  3  1  0
  8  3  1  0
  9  3  1  0
  9  4  1  0
  9  8  1  0
 10  9  1  0
 12  2  1  0
 13  3  1  0
 13 12  1  0
 14  1  1  0
 15  7  1  0
 15 11  1  0
 15 12  1  0
 16 12  1  0
 17  1  1  0
 17  2  1  0
 17  5  1  0
 17 11  1  0
M  END
>  <ID>  (1) 
conformer_0

$$$$
