
     RDKit          3D

 14 13  0  0  0  0  0  0  0  0999 V2000
   12.9945   57.1491   80.9619 C   0  0  0  0  0  0  0  0  0  0  0  0
   14.7749   58.3093   79.9586 C   0  0  0  0  0  0  0  0  0  0  0  0
   12.2378   58.3123   80.3164 C   0  0  0  0  0  0  0  0  0  0  0  0
    9.1632   57.7930   81.8145 O   0  0  0  0  0  0  0  0  0  0  0  0
    9.6768   57.7998   79.4796 C   0  0  0  0  0  0  0  0  0  0  0  0
   10.1833   58.3824   80.8591 C   0  0  0  0  0  0  0  0  0  0  0  0
   16.8162   57.7366   80.5144 O   0  0  0  0  0  0  0  0  0  0  0  0
   10.4227   59.4752   82.1376 O   0  0  0  0  0  0  0  0  0  0  0  0
   11.9095   58.9566   79.5409 O   0  0  0  0  0  0  0  0  0  0  0  0
   14.5394   55.9642   83.2003 O   0  0  0  0  0  0  0  0  0  0  0  0
   14.4374   58.1753   79.8238 O   0  0  0  0  0  0  0  0  0  0  0  0
   15.3960   56.9744   81.2411 C   0  0  0  0  0  0  0  0  0  0  0  0
   14.1738   56.2100   81.7561 C   0  0  0  0  0  0  0  0  0  0  0  0
   12.5945   55.7241   82.1654 O   0  0  0  0  0  0  0  0  0  0  0  0
  3  1  1  0
  6  3  1  0
  6  4  1  0
  6  5  1  0
  8  6  1  0
  9  3  2  0
 11  2  1  0
 12  2  1  0
 12  7  1  0
 13  1  1  0
 13 10  1  0
 13 12  1  0
 14 13  1  0
M  END
>  <ID>  (1) 
conformer_0

$$$$
