
     RDKit          3D

 16 16  0  0  0  0  0  0  0  0999 V2000
   15.2101   56.2236   81.8619 C   0  0  0  0  0  0  0  0  0  0  0  0
   13.4311   58.3979   79.7901 C   0  0  0  0  0  0  0  0  0  0  0  0
   11.2735   58.3292   80.1971 C   0  0  0  0  0  0  0  0  0  0  0  0
    9.5890   57.9036   79.2956 C   0  0  0  0  0  0  0  0  0  0  0  0
    9.1036   57.8130   82.0770 O   0  0  0  0  0  0  0  0  0  0  0  0
   16.6498   57.6050   80.6613 O   0  0  0  0  0  0  0  0  0  0  0  0
    9.9352   58.5359   81.3105 C   0  0  0  0  0  0  0  0  0  0  0  0
   12.9377   56.0298   82.7126 O   0  0  0  0  0  0  0  0  0  0  0  0
   12.0902   59.0952   79.5005 O   0  0  0  0  0  0  0  0  0  0  0  0
   15.4068   56.8043   82.9168 O   0  0  0  0  0  0  0  0  0  0  0  0
   10.3593   59.5932   82.2683 O   0  0  0  0  0  0  0  0  0  0  0  0
   12.7047   57.2836   81.1193 C   0  0  0  0  0  0  0  0  0  0  0  0
   14.2542   58.3639   79.9017 O   0  0  0  0  0  0  0  0  0  0  0  0
   10.8539   57.3505   81.0929 O   0  0  0  0  0  0  0  0  0  0  0  0
   14.1269   56.4414   81.2943 C   0  0  0  0  0  0  0  0  0  0  0  0
   15.2982   57.8230   80.2243 C   0  0  0  0  0  0  0  0  0  0  0  0
  4  3  1  0
  7  3  1  0
  7  5  1  0
  9  2  1  0
  9  3  1  0
 10  1  1  0
 11  7  1  0
 12  2  1  0
 13  2  1  0
 14  3  1  0
 14  7  1  0
 15  1  1  0
 15  8  1  0
 15 12  1  0
 16  6  1  0
 16 13  1  0
M  END
>  <ID>  (1) 
conformer_0

$$$$
