
     RDKit          3D

 13 13  0  0  0  0  0  0  0  0999 V2000
   13.5969   58.4905   79.9659 C   0  0  0  0  0  0  0  0  0  0  0  0
   11.4208   58.1758   80.3897 C   0  0  0  0  0  0  0  0  0  0  0  0
    9.7151   58.4443   81.0559 C   0  0  0  0  0  0  0  0  0  0  0  0
    9.2713   57.3975   79.5007 C   0  0  0  0  0  0  0  0  0  0  0  0
    8.9618   57.9957   81.8069 O   0  0  0  0  0  0  0  0  0  0  0  0
   10.8691   59.4183   82.3717 O   0  0  0  0  0  0  0  0  0  0  0  0
   11.5931   58.7505   79.6901 O   0  0  0  0  0  0  0  0  0  0  0  0
   15.2149   57.3633   80.9204 C   0  0  0  0  0  0  0  0  0  0  0  0
   14.5059   58.0820   79.8596 O   0  0  0  0  0  0  0  0  0  0  0  0
   13.7013   55.7550   82.6642 O   0  0  0  0  0  0  0  0  0  0  0  0
   15.9965   57.2325   82.2012 O   0  0  0  0  0  0  0  0  0  0  0  0
   13.4106   56.9431   81.0492 C   0  0  0  0  0  0  0  0  0  0  0  0
   15.0722   56.2361   81.9010 C   0  0  0  0  0  0  0  0  0  0  0  0
  3  2  1  0
  4  3  1  0
  5  3  1  0
  6  3  1  0
  7  1  1  0
  7  2  1  0
  9  1  1  0
  9  8  1  0
 12  1  1  0
 12  8  1  0
 13  8  1  0
 13 10  1  0
 13 11  1  0
M  END
>  <ID>  (1) 
conformer_0

$$$$
