
     RDKit          3D

 14 13  0  0  0  0  0  0  0  0999 V2000
   13.1068   56.5326   81.2423 C   0  0  0  0  0  0  0  0  0  0  0  0
   15.3014   57.4176   80.4399 C   0  0  0  0  0  0  0  0  0  0  0  0
   13.4834   58.1360   80.1356 C   0  0  0  0  0  0  0  0  0  0  0  0
    9.2339   57.1680   79.8288 C   0  0  0  0  0  0  0  0  0  0  0  0
    9.4476   58.0089   81.8859 O   0  0  0  0  0  0  0  0  0  0  0  0
   11.8673   58.6996   80.4036 C   0  0  0  0  0  0  0  0  0  0  0  0
   13.9736   58.4433   79.4542 O   0  0  0  0  0  0  0  0  0  0  0  0
   10.8694   60.1578   82.0465 O   0  0  0  0  0  0  0  0  0  0  0  0
   16.6513   57.7553   80.7131 O   0  0  0  0  0  0  0  0  0  0  0  0
   13.3052   55.2904   82.6151 O   0  0  0  0  0  0  0  0  0  0  0  0
   15.2870   57.0042   82.5642 O   0  0  0  0  0  0  0  0  0  0  0  0
   14.5775   56.2137   81.4866 C   0  0  0  0  0  0  0  0  0  0  0  0
   11.2394   57.1317   81.0950 O   0  0  0  0  0  0  0  0  0  0  0  0
   10.0766   58.3340   81.0840 C   0  0  0  0  0  0  0  0  0  0  0  0
  3  2  1  0
  6  3  1  0
  7  3  2  0
  9  2  1  0
 10  1  1  0
 12  1  1  0
 12  2  1  0
 12 11  1  0
 13  6  1  0
 14  4  1  0
 14  5  1  0
 14  8  1  0
 14 13  1  0
M  END
>  <ID>  (1) 
conformer_0

$$$$
