
     RDKit          3D

 14 14  0  0  0  0  0  0  0  0999 V2000
   15.3490   57.0758   81.0856 C   0  0  0  0  0  0  0  0  0  0  0  0
   14.1486   56.5728   81.6604 C   0  0  0  0  0  0  0  0  0  0  0  0
    8.5799   57.3886   79.7991 C   0  0  0  0  0  0  0  0  0  0  0  0
   11.0273   58.2970   80.5214 C   0  0  0  0  0  0  0  0  0  0  0  0
   11.1407   59.1881   82.0282 O   0  0  0  0  0  0  0  0  0  0  0  0
   14.4553   57.7204   79.8470 O   0  0  0  0  0  0  0  0  0  0  0  0
   15.0328   56.5711   83.1778 O   0  0  0  0  0  0  0  0  0  0  0  0
   11.8980   59.1507   79.4045 O   0  0  0  0  0  0  0  0  0  0  0  0
   12.6279   56.0409   82.5167 O   0  0  0  0  0  0  0  0  0  0  0  0
   13.4901   58.3570   80.0214 C   0  0  0  0  0  0  0  0  0  0  0  0
   16.5453   57.4576   81.4920 O   0  0  0  0  0  0  0  0  0  0  0  0
   12.6066   57.2615   81.0909 C   0  0  0  0  0  0  0  0  0  0  0  0
    9.9102   57.2936   79.5380 C   0  0  0  0  0  0  0  0  0  0  0  0
    9.6794   57.7962   81.7439 O   0  0  0  0  0  0  0  0  0  0  0  0
  2  1  1  0
  5  4  1  0
  6  1  1  0
  7  2  1  0
  8  4  1  0
  9  2  1  0
 10  6  1  0
 11  1  1  0
 12  2  1  0
 12  4  1  0
 12 10  1  0
 13  3  1  0
 13  4  1  0
 14  3  1  0
M  END
>  <ID>  (1) 
conformer_0

$$$$
