
     RDKit          3D

 15 16  0  0  0  0  0  0  0  0999 V2000
   13.1098   57.1221   81.1177 C   0  0  0  0  0  0  0  0  0  0  0  0
   10.6981   58.1564   80.4524 C   0  0  0  0  0  0  0  0  0  0  0  0
   12.3469   58.5042   79.8299 C   0  0  0  0  0  0  0  0  0  0  0  0
    9.7719   57.5225   79.1853 C   0  0  0  0  0  0  0  0  0  0  0  0
   10.8022   59.6820   82.1103 O   0  0  0  0  0  0  0  0  0  0  0  0
    9.6570   57.4866   82.0930 O   0  0  0  0  0  0  0  0  0  0  0  0
   15.2103   57.3000   79.8572 O   0  0  0  0  0  0  0  0  0  0  0  0
    9.7208   58.5276   81.4223 C   0  0  0  0  0  0  0  0  0  0  0  0
   13.8757   55.8872   83.0081 O   0  0  0  0  0  0  0  0  0  0  0  0
   16.1265   57.2750   82.0920 O   0  0  0  0  0  0  0  0  0  0  0  0
   11.9139   59.0508   79.3743 O   0  0  0  0  0  0  0  0  0  0  0  0
   14.1670   58.1055   80.0555 C   0  0  0  0  0  0  0  0  0  0  0  0
   11.7241   57.1053   81.2649 O   0  0  0  0  0  0  0  0  0  0  0  0
   14.4498   56.1898   81.7945 C   0  0  0  0  0  0  0  0  0  0  0  0
   15.5073   57.0194   81.0720 C   0  0  0  0  0  0  0  0  0  0  0  0
  3  2  1  0
  4  2  1  0
  8  2  1  0
  8  5  1  0
  8  6  1  0
 11  3  2  0
 12  1  1  0
 12  3  1  0
 12  7  1  0
 13  1  1  0
 13  2  1  0
 14  1  1  0
 14  9  1  0
 15  7  1  0
 15 10  1  0
 15 14  1  0
M  END
>  <ID>  (1) 
conformer_0

$$$$
