
     RDKit          3D

 16 15  0  0  0  0  0  0  0  0999 V2000
   12.0555   57.7045   80.3978 C   0  0  0  0  0  0  0  0  0  0  0  0
    9.6678   58.3993   80.8578 C   0  0  0  0  0  0  0  0  0  0  0  0
   13.7089   58.0040   80.1842 C   0  0  0  0  0  0  0  0  0  0  0  0
   16.8424   57.3323   80.6303 O   0  0  0  0  0  0  0  0  0  0  0  0
    8.9280   58.2840   81.4775 O   0  0  0  0  0  0  0  0  0  0  0  0
   11.2537   59.7783   82.0381 O   0  0  0  0  0  0  0  0  0  0  0  0
   11.3261   58.9974   80.5001 C   0  0  0  0  0  0  0  0  0  0  0  0
   14.6870   58.3556   80.3112 O   0  0  0  0  0  0  0  0  0  0  0  0
   13.4587   55.3682   82.5677 O   0  0  0  0  0  0  0  0  0  0  0  0
    8.6521   57.2581   79.4706 C   0  0  0  0  0  0  0  0  0  0  0  0
   11.4679   56.6802   80.9941 O   0  0  0  0  0  0  0  0  0  0  0  0
   15.5440   56.9510   82.7664 O   0  0  0  0  0  0  0  0  0  0  0  0
   13.6858   56.1390   81.1745 C   0  0  0  0  0  0  0  0  0  0  0  0
   15.1404   56.2149   81.7640 C   0  0  0  0  0  0  0  0  0  0  0  0
   15.5061   57.2039   80.7230 C   0  0  0  0  0  0  0  0  0  0  0  0
   12.9315   58.4145   79.2851 O   0  0  0  0  0  0  0  0  0  0  0  0
  5  2  2  0
  7  1  1  0
  7  2  1  0
  7  6  1  0
  8  3  1  0
 10  2  1  0
 11  1  2  0
 13  9  1  0
 14 12  1  0
 14 13  1  0
 15  4  1  0
 15  8  1  0
 15 14  1  0
 16  1  1  0
 16  3  1  0
M  END
>  <ID>  (1) 
conformer_0

$$$$
