
     RDKit          3D

 14 13  0  0  0  0  0  0  0  0999 V2000
   11.4126   58.5544   80.3082 C   0  0  0  0  0  0  0  0  0  0  0  0
   15.0427   56.5056   81.7399 C   0  0  0  0  0  0  0  0  0  0  0  0
    9.9024   58.0301   80.8521 C   0  0  0  0  0  0  0  0  0  0  0  0
    9.1932   57.3622   79.4137 C   0  0  0  0  0  0  0  0  0  0  0  0
    8.9533   57.2222   81.9800 O   0  0  0  0  0  0  0  0  0  0  0  0
   16.8060   57.2221   80.6296 O   0  0  0  0  0  0  0  0  0  0  0  0
   15.0759   57.1847   80.9102 C   0  0  0  0  0  0  0  0  0  0  0  0
   10.9868   59.4527   82.0734 O   0  0  0  0  0  0  0  0  0  0  0  0
   11.3946   59.0184   79.2339 O   0  0  0  0  0  0  0  0  0  0  0  0
   15.3572   56.5423   83.2933 O   0  0  0  0  0  0  0  0  0  0  0  0
   13.5224   58.5785   79.6445 C   0  0  0  0  0  0  0  0  0  0  0  0
   14.4484   57.9868   79.7955 O   0  0  0  0  0  0  0  0  0  0  0  0
   13.0744   55.8605   82.6427 O   0  0  0  0  0  0  0  0  0  0  0  0
   13.0636   57.3490   80.8854 C   0  0  0  0  0  0  0  0  0  0  0  0
  3  1  1  0
  4  3  1  0
  5  3  1  0
  7  2  1  0
  7  6  1  0
  8  1  1  0
  9  1  1  0
 10  2  1  0
 12  7  1  0
 12 11  1  0
 13  2  1  0
 14  1  1  0
 14 11  1  0
M  END
>  <ID>  (1) 
conformer_0

$$$$
