
     RDKit          3D

 16 19  0  0  0  0  0  0  0  0999 V2000
   15.2155   56.2335   81.7215 C   0  0  0  0  0  0  0  0  0  0  0  0
   14.9972   57.3521   80.7086 C   0  0  0  0  0  0  0  0  0  0  0  0
   13.4998   58.9574   79.3622 C   0  0  0  0  0  0  0  0  0  0  0  0
   11.1938   58.2741   80.2310 C   0  0  0  0  0  0  0  0  0  0  0  0
    9.0401   57.8911   81.9453 O   0  0  0  0  0  0  0  0  0  0  0  0
   10.3729   59.6672   81.8827 O   0  0  0  0  0  0  0  0  0  0  0  0
    9.1419   57.7519   79.6111 C   0  0  0  0  0  0  0  0  0  0  0  0
   14.6163   58.0137   79.7438 O   0  0  0  0  0  0  0  0  0  0  0  0
   16.6419   57.3552   81.1915 O   0  0  0  0  0  0  0  0  0  0  0  0
   13.0902   55.5969   82.5255 O   0  0  0  0  0  0  0  0  0  0  0  0
   11.2504   56.9152   80.6678 O   0  0  0  0  0  0  0  0  0  0  0  0
    9.4949   58.4558   81.0267 C   0  0  0  0  0  0  0  0  0  0  0  0
   11.9960   58.6508   79.2935 O   0  0  0  0  0  0  0  0  0  0  0  0
   15.2775   56.5147   82.9189 O   0  0  0  0  0  0  0  0  0  0  0  0
   12.7812   57.6151   80.5863 C   0  0  0  0  0  0  0  0  0  0  0  0
   13.5770   56.2691   81.2275 C   0  0  0  0  0  0  0  0  0  0  0  0
  2  1  1  0
  8  2  1  0
  8  3  1  0
  9  2  1  0
 11  4  1  0
 12  4  1  0
 12  5  1  0
 12  6  1  0
 12  7  1  0
 13  3  1  0
 13  4  1  0
 14  1  1  0
 15  3  1  0
 15  4  1  0
 15 11  1  0
 16  1  1  0
 16  2  1  0
 16 10  1  0
 16 15  1  0
M  END
>  <ID>  (1) 
conformer_0

$$$$
