
     RDKit          3D

 15 16  0  0  0  0  0  0  0  0999 V2000
   15.2822   57.1906   80.4939 C   0  0  0  0  0  0  0  0  0  0  0  0
    9.8875   58.0402   81.1717 C   0  0  0  0  0  0  0  0  0  0  0  0
   13.3021   58.5894   79.6051 C   0  0  0  0  0  0  0  0  0  0  0  0
    9.5236   57.9154   81.6052 O   0  0  0  0  0  0  0  0  0  0  0  0
   16.6482   57.4261   81.0908 O   0  0  0  0  0  0  0  0  0  0  0  0
   11.0854   59.7546   82.4405 O   0  0  0  0  0  0  0  0  0  0  0  0
   14.8855   56.2781   81.6328 C   0  0  0  0  0  0  0  0  0  0  0  0
   13.1073   55.7584   82.6392 O   0  0  0  0  0  0  0  0  0  0  0  0
   11.6419   58.9218   79.3688 O   0  0  0  0  0  0  0  0  0  0  0  0
   14.1177   58.1086   79.9445 O   0  0  0  0  0  0  0  0  0  0  0  0
   12.0795   57.8162   80.5529 C   0  0  0  0  0  0  0  0  0  0  0  0
   13.3698   56.5514   81.1484 C   0  0  0  0  0  0  0  0  0  0  0  0
    8.5329   57.2978   79.7952 C   0  0  0  0  0  0  0  0  0  0  0  0
   15.3414   56.7004   82.8896 O   0  0  0  0  0  0  0  0  0  0  0  0
   11.0429   59.3526   80.9240 C   0  0  0  0  0  0  0  0  0  0  0  0
  4  2  2  0
  5  1  1  0
  7  1  1  0
  9  3  1  0
 10  1  1  0
 10  3  1  0
 11  3  1  0
 11  9  1  0
 12  7  1  0
 12  8  1  0
 12 11  1  0
 13  2  1  0
 14  7  1  0
 15  2  1  0
 15  6  1  0
 15 11  1  0
M  END
>  <ID>  (1) 
conformer_0

$$$$
