
     RDKit          3D

 14 14  0  0  0  0  0  0  0  0999 V2000
   13.6075   58.0542   80.0491 C   0  0  0  0  0  0  0  0  0  0  0  0
   11.6391   58.2142   80.4328 C   0  0  0  0  0  0  0  0  0  0  0  0
    9.9631   58.5560   81.0973 C   0  0  0  0  0  0  0  0  0  0  0  0
    9.3540   57.1831   79.4311 C   0  0  0  0  0  0  0  0  0  0  0  0
    9.1703   57.8226   81.7674 O   0  0  0  0  0  0  0  0  0  0  0  0
   10.9157   59.5644   82.2205 O   0  0  0  0  0  0  0  0  0  0  0  0
   13.1547   56.6645   81.2710 C   0  0  0  0  0  0  0  0  0  0  0  0
   14.8125   58.4127   79.8792 O   0  0  0  0  0  0  0  0  0  0  0  0
   15.0655   56.4813   83.0398 O   0  0  0  0  0  0  0  0  0  0  0  0
   11.8285   58.5137   79.5475 O   0  0  0  0  0  0  0  0  0  0  0  0
   16.7262   57.0483   80.2625 O   0  0  0  0  0  0  0  0  0  0  0  0
   14.8033   56.5793   81.6288 C   0  0  0  0  0  0  0  0  0  0  0  0
   15.7087   57.4486   80.5080 C   0  0  0  0  0  0  0  0  0  0  0  0
   12.7987   55.7731   82.6375 O   0  0  0  0  0  0  0  0  0  0  0  0
  3  2  1  0
  4  3  1  0
  5  3  1  0
  6  3  1  0
  7  1  1  0
  8  1  1  0
 10  1  1  0
 10  2  1  0
 12  7  1  0
 12  9  1  0
 13  8  1  0
 13 11  1  0
 13 12  1  0
 14  7  1  0
M  END
>  <ID>  (1) 
conformer_0

$$$$
