
     RDKit          3D

 17 17  0  0  0  0  0  0  0  0999 V2000
   11.5173   57.4240   80.6939 C   0  0  0  0  0  0  0  0  0  0  0  0
    9.6420   58.4884   81.3715 C   0  0  0  0  0  0  0  0  0  0  0  0
    9.8366   57.7493   79.0264 C   0  0  0  0  0  0  0  0  0  0  0  0
   15.1901   58.0773   80.4412 C   0  0  0  0  0  0  0  0  0  0  0  0
    9.2932   57.4543   81.7917 O   0  0  0  0  0  0  0  0  0  0  0  0
   16.6193   57.5570   81.0813 O   0  0  0  0  0  0  0  0  0  0  0  0
   15.6337   56.5047   81.7238 C   0  0  0  0  0  0  0  0  0  0  0  0
   14.5426   58.3845   79.6400 O   0  0  0  0  0  0  0  0  0  0  0  0
    9.3086   59.5449   82.0870 O   0  0  0  0  0  0  0  0  0  0  0  0
   13.0717   55.7044   82.5815 O   0  0  0  0  0  0  0  0  0  0  0  0
   11.8859   59.3473   79.6182 O   0  0  0  0  0  0  0  0  0  0  0  0
   14.1513   56.4734   81.8050 C   0  0  0  0  0  0  0  0  0  0  0  0
   11.4104   57.0097   81.1040 O   0  0  0  0  0  0  0  0  0  0  0  0
   15.1482   56.3888   83.1035 O   0  0  0  0  0  0  0  0  0  0  0  0
   13.5953   57.2076   80.6661 C   0  0  0  0  0  0  0  0  0  0  0  0
   13.0811   58.7941   80.1944 C   0  0  0  0  0  0  0  0  0  0  0  0
   10.7425   58.8539   79.9735 C   0  0  0  0  0  0  0  0  0  0  0  0
  5  2  2  0
  7  6  1  0
  8  4  1  0
  9  2  1  0
 12  7  1  0
 12 10  1  0
 13  1  2  0
 14  7  1  0
 15  4  1  0
 15 12  1  0
 16  8  1  0
 16 11  1  0
 16 15  1  0
 17  1  1  0
 17  2  1  0
 17  3  1  0
 17 11  1  0
M  END
>  <ID>  (1) 
conformer_0

$$$$
