
     RDKit          3D

 15 16  0  0  0  0  0  0  0  0999 V2000
   10.4272   57.8192   81.2779 C   0  0  0  0  0  0  0  0  0  0  0  0
   15.2890   57.1724   80.7019 C   0  0  0  0  0  0  0  0  0  0  0  0
   11.4357   58.9115   80.3446 C   0  0  0  0  0  0  0  0  0  0  0  0
   15.0632   56.3409   81.9484 C   0  0  0  0  0  0  0  0  0  0  0  0
    9.4099   57.5773   81.7720 O   0  0  0  0  0  0  0  0  0  0  0  0
   16.7524   57.5309   80.8558 O   0  0  0  0  0  0  0  0  0  0  0  0
   14.4339   57.7432   79.8913 O   0  0  0  0  0  0  0  0  0  0  0  0
   11.4161   59.6005   81.9417 O   0  0  0  0  0  0  0  0  0  0  0  0
    9.7280   57.1224   79.5078 C   0  0  0  0  0  0  0  0  0  0  0  0
   12.4837   55.9914   82.6380 O   0  0  0  0  0  0  0  0  0  0  0  0
   12.1062   58.9724   79.2722 O   0  0  0  0  0  0  0  0  0  0  0  0
   15.0635   56.8610   83.0115 O   0  0  0  0  0  0  0  0  0  0  0  0
   13.4670   58.6550   79.3778 C   0  0  0  0  0  0  0  0  0  0  0  0
   12.5829   57.6644   80.7363 C   0  0  0  0  0  0  0  0  0  0  0  0
   13.2445   56.6231   81.4007 C   0  0  0  0  0  0  0  0  0  0  0  0
  3  1  1  0
  4  2  1  0
  5  1  1  0
  6  2  1  0
  7  2  1  0
  8  3  1  0
  9  1  1  0
 11  3  1  0
 12  4  1  0
 13  7  1  0
 13 11  1  0
 14  3  1  0
 14 13  1  0
 15  4  1  0
 15 10  1  0
 15 14  1  0
M  END
>  <ID>  (1) 
conformer_0

$$$$
