
     RDKit          3D

 16 16  0  0  0  0  0  0  0  0999 V2000
   13.2076   57.3211   80.7100 C   0  0  0  0  0  0  0  0  0  0  0  0
   10.1314   57.3295   79.1407 C   0  0  0  0  0  0  0  0  0  0  0  0
   15.7573   57.4172   80.3406 C   0  0  0  0  0  0  0  0  0  0  0  0
    9.9047   58.7035   81.2281 C   0  0  0  0  0  0  0  0  0  0  0  0
    9.3914   57.7750   81.8755 O   0  0  0  0  0  0  0  0  0  0  0  0
   13.5233   58.4770   79.7651 C   0  0  0  0  0  0  0  0  0  0  0  0
   10.7304   59.9984   82.4050 O   0  0  0  0  0  0  0  0  0  0  0  0
   15.3692   56.7919   82.9968 O   0  0  0  0  0  0  0  0  0  0  0  0
   15.0809   57.6535   79.7821 O   0  0  0  0  0  0  0  0  0  0  0  0
   11.8923   58.5098   79.6792 O   0  0  0  0  0  0  0  0  0  0  0  0
   12.7967   55.7323   82.6933 O   0  0  0  0  0  0  0  0  0  0  0  0
   16.9578   57.4552   80.9442 O   0  0  0  0  0  0  0  0  0  0  0  0
   15.1817   56.4807   81.7115 C   0  0  0  0  0  0  0  0  0  0  0  0
   13.7605   56.1907   81.6000 C   0  0  0  0  0  0  0  0  0  0  0  0
    8.8778   57.5328   79.4656 C   0  0  0  0  0  0  0  0  0  0  0  0
   11.2763   58.5448   80.3619 C   0  0  0  0  0  0  0  0  0  0  0  0
  5  4  1  0
  6  1  1  0
  7  4  1  0
  9  3  1  0
  9  6  1  0
 10  6  1  0
 12  3  1  0
 13  3  1  0
 13  8  1  0
 14  1  1  0
 14 11  1  0
 14 13  1  0
 15  2  1  0
 16  2  1  0
 16  4  1  0
 16 10  1  0
M  END
>  <ID>  (1) 
conformer_0

$$$$
