
     RDKit          3D

 15 15  0  0  0  0  0  0  0  0999 V2000
   15.2280   57.2857   80.5741 C   0  0  0  0  0  0  0  0  0  0  0  0
   13.5426   58.5294   79.8274 C   0  0  0  0  0  0  0  0  0  0  0  0
   10.0730   57.9166   81.0044 C   0  0  0  0  0  0  0  0  0  0  0  0
   11.8780   57.9743   80.3403 C   0  0  0  0  0  0  0  0  0  0  0  0
    9.1162   57.2407   79.6882 C   0  0  0  0  0  0  0  0  0  0  0  0
   16.8984   57.4986   80.5706 O   0  0  0  0  0  0  0  0  0  0  0  0
   14.5878   58.2396   79.7334 O   0  0  0  0  0  0  0  0  0  0  0  0
    9.8074   58.0030   82.0486 O   0  0  0  0  0  0  0  0  0  0  0  0
   11.1777   60.0629   82.1621 O   0  0  0  0  0  0  0  0  0  0  0  0
   13.5648   55.6126   82.7603 O   0  0  0  0  0  0  0  0  0  0  0  0
   11.6908   58.6511   79.5210 O   0  0  0  0  0  0  0  0  0  0  0  0
   15.5267   56.9438   82.5428 O   0  0  0  0  0  0  0  0  0  0  0  0
   14.2895   56.1710   81.3904 C   0  0  0  0  0  0  0  0  0  0  0  0
   12.8673   56.5162   81.0406 C   0  0  0  0  0  0  0  0  0  0  0  0
   11.5268   55.5543   81.9397 O   0  0  0  0  0  0  0  0  0  0  0  0
  4  2  1  0
  4  3  1  0
  5  3  1  0
  6  1  1  0
  7  1  1  0
  7  2  1  0
  8  3  1  0
  9  8  1  0
 11  4  1  0
 13  1  1  0
 13 10  1  0
 13 12  1  0
 14  4  1  0
 14 13  1  0
 15 14  1  0
M  END
>  <ID>  (1) 
conformer_0

$$$$
