
     RDKit          3D

 13 14  0  0  0  0  0  0  0  0999 V2000
   12.6931   57.2753   80.6373 C   0  0  0  0  0  0  0  0  0  0  0  0
   14.0642   56.2823   81.5960 C   0  0  0  0  0  0  0  0  0  0  0  0
    9.6733   58.5669   81.0267 C   0  0  0  0  0  0  0  0  0  0  0  0
    9.2247   58.1679   81.6534 O   0  0  0  0  0  0  0  0  0  0  0  0
   14.5164   58.0623   80.0716 C   0  0  0  0  0  0  0  0  0  0  0  0
    9.1871   57.5756   79.5817 C   0  0  0  0  0  0  0  0  0  0  0  0
   16.6117   57.3397   80.5703 O   0  0  0  0  0  0  0  0  0  0  0  0
   13.0963   55.7564   82.8043 O   0  0  0  0  0  0  0  0  0  0  0  0
   11.2495   57.2335   80.9994 O   0  0  0  0  0  0  0  0  0  0  0  0
   13.4239   58.7343   79.9472 O   0  0  0  0  0  0  0  0  0  0  0  0
   15.1804   56.8184   81.2296 C   0  0  0  0  0  0  0  0  0  0  0  0
   15.3171   56.9323   82.9525 O   0  0  0  0  0  0  0  0  0  0  0  0
   11.5277   58.4792   80.4593 C   0  0  0  0  0  0  0  0  0  0  0  0
  2  1  1  0
  4  3  1  0
  6  3  1  0
  8  2  1  0
  9  1  1  0
 10  1  1  0
 10  5  1  0
 11  2  1  0
 11  5  1  0
 11  7  1  0
 12 11  1  0
 13  1  1  0
 13  3  1  0
 13  9  1  0
M  END
>  <ID>  (1) 
conformer_0

$$$$
