
     RDKit          3D

 15 15  0  0  0  0  0  0  0  0999 V2000
   15.5447   57.5488   80.2316 C   0  0  0  0  0  0  0  0  0  0  0  0
   15.3489   56.6026   81.6009 C   0  0  0  0  0  0  0  0  0  0  0  0
   13.4334   58.4364   79.7244 C   0  0  0  0  0  0  0  0  0  0  0  0
   10.0297   57.3529   79.5111 C   0  0  0  0  0  0  0  0  0  0  0  0
    8.8240   58.1256   81.6066 O   0  0  0  0  0  0  0  0  0  0  0  0
   16.8219   57.5539   80.4509 O   0  0  0  0  0  0  0  0  0  0  0  0
   11.4672   58.2683   80.2631 C   0  0  0  0  0  0  0  0  0  0  0  0
   10.6331   59.4594   82.0642 O   0  0  0  0  0  0  0  0  0  0  0  0
   12.5154   58.9222   79.4468 O   0  0  0  0  0  0  0  0  0  0  0  0
   15.0593   56.6229   83.0532 O   0  0  0  0  0  0  0  0  0  0  0  0
   12.6136   56.1545   82.7136 O   0  0  0  0  0  0  0  0  0  0  0  0
    9.7507   58.1336   81.2264 C   0  0  0  0  0  0  0  0  0  0  0  0
   12.5021   57.2205   81.1421 C   0  0  0  0  0  0  0  0  0  0  0  0
   13.8549   56.6841   81.5204 C   0  0  0  0  0  0  0  0  0  0  0  0
   14.3061   57.9889   79.8496 O   0  0  0  0  0  0  0  0  0  0  0  0
  2  1  1  0
  6  1  1  0
  7  4  1  0
  9  3  1  0
  9  7  1  0
 10  2  1  0
 12  4  1  0
 12  5  2  0
 12  8  1  0
 13  7  1  0
 14  2  1  0
 14 11  1  0
 14 13  2  0
 15  1  1  0
 15  3  1  0
M  END
>  <ID>  (1) 
conformer_0

$$$$
