
     RDKit          3D

 16 16  0  0  0  0  0  0  0  0999 V2000
   12.5734   58.4811   80.2836 C   0  0  0  0  0  0  0  0  0  0  0  0
   14.2791   56.2350   81.6309 C   0  0  0  0  0  0  0  0  0  0  0  0
   10.5360   57.9023   80.3977 C   0  0  0  0  0  0  0  0  0  0  0  0
    9.4110   57.2850   79.4587 C   0  0  0  0  0  0  0  0  0  0  0  0
   16.9457   57.3522   80.2508 O   0  0  0  0  0  0  0  0  0  0  0  0
   12.6399   56.8344   81.0091 C   0  0  0  0  0  0  0  0  0  0  0  0
    9.3080   58.5291   81.6713 O   0  0  0  0  0  0  0  0  0  0  0  0
   11.3443   60.0184   82.0458 O   0  0  0  0  0  0  0  0  0  0  0  0
   11.6144   58.8720   79.1464 O   0  0  0  0  0  0  0  0  0  0  0  0
   12.8281   55.3914   82.4340 O   0  0  0  0  0  0  0  0  0  0  0  0
   15.1294   56.1647   82.6302 C   0  0  0  0  0  0  0  0  0  0  0  0
   10.4291   59.2621   81.2727 C   0  0  0  0  0  0  0  0  0  0  0  0
   11.4387   56.9683   80.9626 O   0  0  0  0  0  0  0  0  0  0  0  0
   14.5389   57.9623   80.2487 C   0  0  0  0  0  0  0  0  0  0  0  0
   15.7486   57.1894   80.7537 C   0  0  0  0  0  0  0  0  0  0  0  0
   13.8033   58.4657   79.7256 O   0  0  0  0  0  0  0  0  0  0  0  0
  4  3  1  0
  6  1  1  0
  6  2  1  0
  9  1  1  0
 10  2  1  0
 11  2  1  0
 12  3  1  0
 12  7  1  0
 12  8  1  0
 13  3  1  0
 13  6  1  0
 15  2  1  0
 15  5  1  0
 15 14  1  0
 16  1  1  0
 16 14  1  0
M  END
>  <ID>  (1) 
conformer_0

$$$$
