
     RDKit          3D

 16 18  0  0  0  0  0  0  0  0999 V2000
   11.1917   58.4973   80.2511 C   0  0  0  0  0  0  0  0  0  0  0  0
   13.5544   58.4173   79.8202 C   0  0  0  0  0  0  0  0  0  0  0  0
   15.9433   57.5887   80.3368 C   0  0  0  0  0  0  0  0  0  0  0  0
    9.7164   58.3813   81.0020 C   0  0  0  0  0  0  0  0  0  0  0  0
    9.3068   57.7632   79.5123 C   0  0  0  0  0  0  0  0  0  0  0  0
   10.5650   59.7033   82.1070 O   0  0  0  0  0  0  0  0  0  0  0  0
    9.1911   57.5785   82.0594 O   0  0  0  0  0  0  0  0  0  0  0  0
   14.9754   58.3887   80.1178 O   0  0  0  0  0  0  0  0  0  0  0  0
   17.0170   57.5376   80.5864 O   0  0  0  0  0  0  0  0  0  0  0  0
   12.9298   55.7178   82.5841 O   0  0  0  0  0  0  0  0  0  0  0  0
   15.2871   56.8214   82.7387 O   0  0  0  0  0  0  0  0  0  0  0  0
   11.0427   56.9116   81.1669 O   0  0  0  0  0  0  0  0  0  0  0  0
   15.2069   56.6481   81.3490 C   0  0  0  0  0  0  0  0  0  0  0  0
   12.5253   57.2852   80.8881 C   0  0  0  0  0  0  0  0  0  0  0  0
   12.4062   58.6783   79.7849 O   0  0  0  0  0  0  0  0  0  0  0  0
   13.7985   56.2526   81.3887 C   0  0  0  0  0  0  0  0  0  0  0  0
  4  1  1  0
  5  4  1  0
  6  4  1  0
  7  4  1  0
  8  2  1  0
  8  3  1  0
  9  3  1  0
 12  1  1  0
 13  3  1  0
 13 11  1  0
 14  1  1  0
 14  2  1  0
 14 12  1  0
 15  1  1  0
 15  2  1  0
 16 10  1  0
 16 13  1  0
 16 14  1  0
M  END
>  <ID>  (1) 
conformer_0

$$$$
