
     RDKit          3D

 15 16  0  0  0  0  0  0  0  0999 V2000
   13.1859   57.7234   80.7359 C   0  0  0  0  0  0  0  0  0  0  0  0
   11.5717   57.9837   80.5483 C   0  0  0  0  0  0  0  0  0  0  0  0
    9.3560   57.1790   79.6438 C   0  0  0  0  0  0  0  0  0  0  0  0
   13.4494   58.9176   79.3881 C   0  0  0  0  0  0  0  0  0  0  0  0
    9.5099   57.6591   81.8203 O   0  0  0  0  0  0  0  0  0  0  0  0
   12.8374   55.6215   82.5896 O   0  0  0  0  0  0  0  0  0  0  0  0
   11.2002   59.4714   82.3513 O   0  0  0  0  0  0  0  0  0  0  0  0
   16.7717   57.5870   80.9334 O   0  0  0  0  0  0  0  0  0  0  0  0
    9.9361   57.5724   81.3057 C   0  0  0  0  0  0  0  0  0  0  0  0
   14.7608   58.1738   79.6758 O   0  0  0  0  0  0  0  0  0  0  0  0
   12.0425   58.9032   79.5159 O   0  0  0  0  0  0  0  0  0  0  0  0
   15.3225   57.7092   80.4210 C   0  0  0  0  0  0  0  0  0  0  0  0
   15.2067   57.0239   82.6141 O   0  0  0  0  0  0  0  0  0  0  0  0
   13.4246   56.3700   81.5114 C   0  0  0  0  0  0  0  0  0  0  0  0
   15.2210   56.3981   81.5962 C   0  0  0  0  0  0  0  0  0  0  0  0
  2  1  1  0
  4  1  1  0
  7  2  1  0
  9  2  1  0
  9  3  1  0
  9  5  2  0
 10  4  1  0
 11  2  1  0
 11  4  1  0
 12  8  1  0
 12 10  1  0
 14  1  1  0
 14  6  1  0
 15 12  1  0
 15 13  1  0
 15 14  1  0
M  END
>  <ID>  (1) 
conformer_0

$$$$
