
     RDKit          3D

 16 16  0  0  0  0  0  0  0  0999 V2000
   15.3919   57.3955   80.5270 C   0  0  0  0  0  0  0  0  0  0  0  0
   11.4546   58.5482   80.2609 C   0  0  0  0  0  0  0  0  0  0  0  0
   13.5696   58.7707   79.7869 C   0  0  0  0  0  0  0  0  0  0  0  0
    9.5375   57.4021   79.5577 C   0  0  0  0  0  0  0  0  0  0  0  0
    9.0414   57.9406   81.7348 O   0  0  0  0  0  0  0  0  0  0  0  0
   16.9163   57.5694   80.6058 O   0  0  0  0  0  0  0  0  0  0  0  0
   11.3268   59.3589   79.4369 O   0  0  0  0  0  0  0  0  0  0  0  0
   10.6276   59.5995   82.0755 O   0  0  0  0  0  0  0  0  0  0  0  0
    9.8296   58.4134   81.0382 C   0  0  0  0  0  0  0  0  0  0  0  0
   12.9443   55.7583   82.5912 O   0  0  0  0  0  0  0  0  0  0  0  0
   14.5987   57.9086   79.8784 O   0  0  0  0  0  0  0  0  0  0  0  0
   15.5901   57.1420   82.7496 O   0  0  0  0  0  0  0  0  0  0  0  0
   12.3306   56.8110   80.5427 O   0  0  0  0  0  0  0  0  0  0  0  0
   12.9790   57.2846   80.6734 C   0  0  0  0  0  0  0  0  0  0  0  0
   13.9654   56.2169   81.6447 C   0  0  0  0  0  0  0  0  0  0  0  0
   15.5423   56.4500   81.8517 C   0  0  0  0  0  0  0  0  0  0  0  0
  6  1  1  0
  7  2  2  0
  9  2  1  0
  9  4  1  0
  9  5  1  0
  9  8  1  0
 11  1  1  0
 11  3  1  0
 14  2  1  0
 14  3  1  0
 14 13  1  0
 15 10  1  0
 15 14  1  0
 16  1  1  0
 16 12  1  0
 16 15  1  0
M  END
>  <ID>  (1) 
conformer_0

$$$$
