
     RDKit          3D

 15 15  0  0  0  0  0  0  0  0999 V2000
   15.6018   56.6230   81.2771 C   0  0  0  0  0  0  0  0  0  0  0  0
   14.2027   55.9287   81.6589 C   0  0  0  0  0  0  0  0  0  0  0  0
   13.2003   58.8929   79.6044 C   0  0  0  0  0  0  0  0  0  0  0  0
    9.3869   57.7095   79.3434 C   0  0  0  0  0  0  0  0  0  0  0  0
    9.4087   57.4082   81.7913 O   0  0  0  0  0  0  0  0  0  0  0  0
   14.4846   57.5881   80.5093 C   0  0  0  0  0  0  0  0  0  0  0  0
   16.6367   56.8882   80.8243 O   0  0  0  0  0  0  0  0  0  0  0  0
   14.5191   58.2640   79.7210 O   0  0  0  0  0  0  0  0  0  0  0  0
   10.8704   59.4792   82.2985 O   0  0  0  0  0  0  0  0  0  0  0  0
   13.4925   55.5257   82.6379 O   0  0  0  0  0  0  0  0  0  0  0  0
   11.9389   58.9682   79.3340 O   0  0  0  0  0  0  0  0  0  0  0  0
    9.8911   57.9423   80.7559 C   0  0  0  0  0  0  0  0  0  0  0  0
   10.9776   56.6735   80.6507 O   0  0  0  0  0  0  0  0  0  0  0  0
   11.4967   58.4449   80.1062 C   0  0  0  0  0  0  0  0  0  0  0  0
   12.8341   56.9814   80.8524 C   0  0  0  0  0  0  0  0  0  0  0  0
  2  1  1  0
  6  1  1  0
  7  1  1  0
  8  3  1  0
  8  6  1  0
 10  2  1  0
 11  3  1  0
 12  4  1  0
 12  5  1  0
 12  9  1  0
 13 12  1  0
 14 11  1  0
 15  2  1  0
 15  6  1  0
 15 13  1  0
M  END
>  <ID>  (1) 
conformer_0

$$$$
