
     RDKit          3D

 14 14  0  0  0  0  0  0  0  0999 V2000
   15.2409   57.9717   80.1761 C   0  0  0  0  0  0  0  0  0  0  0  0
   13.2136   58.3827   80.2481 C   0  0  0  0  0  0  0  0  0  0  0  0
   11.2182   58.4413   79.9672 C   0  0  0  0  0  0  0  0  0  0  0  0
   12.9053   56.8441   80.8581 C   0  0  0  0  0  0  0  0  0  0  0  0
   16.6731   57.4294   80.4382 O   0  0  0  0  0  0  0  0  0  0  0  0
   10.7414   59.7915   82.2766 O   0  0  0  0  0  0  0  0  0  0  0  0
    9.3170   57.8783   79.3012 C   0  0  0  0  0  0  0  0  0  0  0  0
    9.3351   58.0260   81.6286 O   0  0  0  0  0  0  0  0  0  0  0  0
   11.4207   58.6255   79.6691 O   0  0  0  0  0  0  0  0  0  0  0  0
   13.0641   55.4160   82.5978 O   0  0  0  0  0  0  0  0  0  0  0  0
   14.0255   58.4175   79.7924 O   0  0  0  0  0  0  0  0  0  0  0  0
   10.2413   59.4137   81.0828 C   0  0  0  0  0  0  0  0  0  0  0  0
   15.2158   56.7412   81.3606 C   0  0  0  0  0  0  0  0  0  0  0  0
   13.8677   55.9771   81.7436 C   0  0  0  0  0  0  0  0  0  0  0  0
  4  2  1  0
  5  1  1  0
  7  3  1  0
  9  2  1  0
  9  3  1  0
 11  1  1  0
 11  2  1  0
 12  3  1  0
 12  6  1  0
 12  8  1  0
 13  1  2  0
 14  4  1  0
 14 10  1  0
 14 13  1  0
M  END
>  <ID>  (1) 
conformer_0

$$$$
