
     RDKit          3D

 13 13  0  0  0  0  0  0  0  0999 V2000
   13.9997   58.1979   79.7174 C   0  0  0  0  0  0  0  0  0  0  0  0
   15.2139   56.7701   81.3353 C   0  0  0  0  0  0  0  0  0  0  0  0
   11.5649   58.3896   79.9648 C   0  0  0  0  0  0  0  0  0  0  0  0
    9.5136   57.7130   82.0112 O   0  0  0  0  0  0  0  0  0  0  0  0
   13.8576   55.9864   82.9649 O   0  0  0  0  0  0  0  0  0  0  0  0
    9.7197   57.5180   79.5269 C   0  0  0  0  0  0  0  0  0  0  0  0
   11.0325   59.3804   82.2426 O   0  0  0  0  0  0  0  0  0  0  0  0
   14.8142   57.9465   79.6663 O   0  0  0  0  0  0  0  0  0  0  0  0
    9.5618   58.5270   81.1254 C   0  0  0  0  0  0  0  0  0  0  0  0
   12.2771   58.9044   79.1974 O   0  0  0  0  0  0  0  0  0  0  0  0
   12.4177   56.3101   81.1711 O   0  0  0  0  0  0  0  0  0  0  0  0
   12.4247   57.7268   80.8812 C   0  0  0  0  0  0  0  0  0  0  0  0
   13.8204   56.5359   81.4307 C   0  0  0  0  0  0  0  0  0  0  0  0
  6  3  1  0
  8  1  2  0
  9  4  1  0
  9  6  1  0
  9  7  1  0
 10  3  2  0
 12  1  1  0
 12  3  1  0
 12 11  1  0
 13  2  1  0
 13  5  1  0
 13 11  1  0
 13 12  1  0
M  END
>  <ID>  (1) 
conformer_0

$$$$
