
     RDKit          3D

 17 16  0  0  0  0  0  0  0  0999 V2000
   15.5509   57.8055   79.9875 C   0  0  2  0  0  0  0  0  0  0  0  0
   12.2400   56.7838   81.1121 C   0  0  0  0  0  0  0  0  0  0  0  0
   13.6151   58.1480   80.1884 C   0  0  0  0  0  0  0  0  0  0  0  0
   14.9965   56.8009   81.2515 C   0  0  2  0  0  0  0  0  0  0  0  0
   16.8134   57.4132   80.6123 O   0  0  0  0  0  0  0  0  0  0  0  0
    9.2283   57.7523   81.9577 O   0  0  0  0  0  0  0  0  0  0  0  0
   11.0070   59.9241   82.2610 O   0  0  0  0  0  0  0  0  0  0  0  0
   11.9135   58.8302   79.5339 O   0  0  0  0  0  0  0  0  0  0  0  0
    9.5140   57.3129   79.3835 C   0  0  0  0  0  0  0  0  0  0  0  0
   12.6197   55.5540   82.4917 O   0  0  0  0  0  0  0  0  0  0  0  0
   13.5048   56.4004   81.3930 C   0  0  0  0  0  0  0  0  0  0  0  0
   14.1404   58.3632   79.7819 O   0  0  0  0  0  0  0  0  0  0  0  0
   14.6807   56.5229   82.5466 O   0  0  0  0  0  0  0  0  0  0  0  0
   11.7416   58.6944   79.8521 C   0  0  0  0  0  0  0  0  0  0  0  0
   10.1136   59.4780   80.8661 C   0  0  0  0  0  0  0  0  0  0  0  0
   10.5961   56.6520   81.3176 O   0  0  0  0  0  0  0  0  0  0  0  0
   10.1060   57.7221   81.0363 C   0  0  1  0  0  0  0  0  0  0  0  0
  4  1  1  0
  1  5  1  1
 11  2  2  3
 11  4  1  0
 11 10  1  0
 12  1  1  0
 12  3  1  0
  4 13  1  1
 14  3  1  0
 14  8  1  0
 15  7  1  0
 16  2  1  0
 17  6  1  0
 17  9  1  6
 17 15  1  0
 17 16  1  0
M  END
>  <ID>  (1) 
conformer_0

$$$$
