
     RDKit          3D

 15 14  0  0  0  0  0  0  0  0999 V2000
   15.1888   56.1928   81.9686 C   0  0  0  0  0  0  0  0  0  0  0  0
   13.8458   56.2431   81.5288 C   0  0  0  0  0  0  0  0  0  0  0  0
   12.5109   57.3544   80.8557 C   0  0  0  0  0  0  0  0  0  0  0  0
   16.5468   57.4454   81.1128 O   0  0  0  0  0  0  0  0  0  0  0  0
    9.5730   57.6227   82.0028 O   0  0  0  0  0  0  0  0  0  0  0  0
   10.6535   59.3755   79.8335 O   0  0  0  0  0  0  0  0  0  0  0  0
   14.6424   58.0171   79.8132 O   0  0  0  0  0  0  0  0  0  0  0  0
    9.3800   57.4537   79.7113 C   0  0  0  0  0  0  0  0  0  0  0  0
   13.3013   55.5723   82.7908 O   0  0  0  0  0  0  0  0  0  0  0  0
   10.6213   59.6422   82.2982 O   0  0  0  0  0  0  0  0  0  0  0  0
    9.8390   58.6475   81.0397 C   0  0  0  0  0  0  0  0  0  0  0  0
   11.6125   58.6273   80.3168 C   0  0  0  0  0  0  0  0  0  0  0  0
   11.7510   57.1087   81.4413 O   0  0  0  0  0  0  0  0  0  0  0  0
   15.0947   57.3391   80.4320 C   0  0  0  0  0  0  0  0  0  0  0  0
   13.5564   58.5224   79.6231 C   0  0  0  0  0  0  0  0  0  0  0  0
  2  1  1  0
  3  2  1  0
  9  2  1  0
 11  5  1  0
 11  6  1  0
 11  8  1  0
 11 10  1  0
 12  3  1  0
 12  6  1  0
 13  3  2  0
 14  1  1  0
 14  4  1  0
 14  7  1  0
 15  7  1  0
M  END
>  <ID>  (1) 
conformer_0

$$$$
