
     RDKit          3D

 17 17  0  0  0  0  0  0  0  0999 V2000
   14.5600   57.9281   80.1772 C   0  0  0  0  0  0  0  0  0  0  0  0
   15.7235   56.7677   81.1491 C   0  0  0  0  0  0  0  0  0  0  0  0
   12.9963   58.8666   79.8562 C   0  0  0  0  0  0  0  0  0  0  0  0
    8.8890   57.8814   81.7750 O   0  0  0  0  0  0  0  0  0  0  0  0
   14.4558   56.0834   81.7048 C   0  0  0  0  0  0  0  0  0  0  0  0
   10.9438   60.1010   82.1718 O   0  0  0  0  0  0  0  0  0  0  0  0
   14.6308   57.9025   79.7737 O   0  0  0  0  0  0  0  0  0  0  0  0
   16.6002   57.8733   80.4352 O   0  0  0  0  0  0  0  0  0  0  0  0
   12.6729   55.3360   82.4046 O   0  0  0  0  0  0  0  0  0  0  0  0
    8.6592   57.8176   79.8424 C   0  0  0  0  0  0  0  0  0  0  0  0
    9.4449   58.0408   81.0083 C   0  0  0  0  0  0  0  0  0  0  0  0
   13.0976   56.4566   81.1393 C   0  0  0  0  0  0  0  0  0  0  0  0
   10.8563   57.3165   80.8885 O   0  0  0  0  0  0  0  0  0  0  0  0
   12.6249   59.1956   79.5242 O   0  0  0  0  0  0  0  0  0  0  0  0
   14.5504   56.0319   82.9452 O   0  0  0  0  0  0  0  0  0  0  0  0
   12.0635   57.5449   80.5691 C   0  0  0  0  0  0  0  0  0  0  0  0
   10.9828   59.3752   80.8909 C   0  0  0  0  0  0  0  0  0  0  0  0
  2  1  1  0
  3  1  1  0
  5  2  1  0
  7  1  2  0
  8  2  1  0
 11  4  1  0
 11 10  1  0
 12  5  1  0
 12  9  1  0
 13 11  1  0
 14  3  2  0
 15  5  1  0
 16  3  1  0
 16 12  1  0
 16 13  1  0
 17  6  1  0
 17 11  1  0
M  END
>  <ID>  (1) 
conformer_0

$$$$
