
     RDKit          3D

 15 16  0  0  0  0  0  0  0  0999 V2000
   15.7219   56.7504   81.5510 C   0  0  0  0  0  0  0  0  0  0  0  0
   14.2494   56.4074   81.6064 C   0  0  0  0  0  0  0  0  0  0  0  0
   12.9137   56.7584   80.8701 C   0  0  0  0  0  0  0  0  0  0  0  0
    9.3251   57.4552   79.6156 C   0  0  0  0  0  0  0  0  0  0  0  0
   16.7627   57.5240   80.8720 O   0  0  0  0  0  0  0  0  0  0  0  0
   10.1017   58.0199   81.6250 O   0  0  0  0  0  0  0  0  0  0  0  0
    9.7256   58.9586   81.1589 C   0  0  0  0  0  0  0  0  0  0  0  0
   11.9376   58.8033   79.5500 O   0  0  0  0  0  0  0  0  0  0  0  0
   13.0224   55.5312   82.1235 O   0  0  0  0  0  0  0  0  0  0  0  0
   15.2044   56.6916   82.9495 O   0  0  0  0  0  0  0  0  0  0  0  0
   10.7128   60.0520   81.7255 O   0  0  0  0  0  0  0  0  0  0  0  0
   12.9238   58.1676   80.1215 C   0  0  0  0  0  0  0  0  0  0  0  0
   15.0430   57.5362   80.2397 C   0  0  0  0  0  0  0  0  0  0  0  0
   14.1453   58.2571   79.6698 O   0  0  0  0  0  0  0  0  0  0  0  0
   10.9889   58.1293   80.5121 C   0  0  0  0  0  0  0  0  0  0  0  0
  2  1  1  0
  3  2  1  0
  5  1  1  0
  7  4  1  0
  7  6  1  0
  9  2  1  0
 10  1  1  0
 11  7  1  0
 12  3  1  0
 12  8  1  0
 13  1  1  0
 13  2  1  0
 14 12  1  0
 14 13  1  0
 15  6  1  0
 15  8  1  0
M  END
>  <ID>  (1) 
conformer_0

$$$$
