
     RDKit          3D

 15 15  0  0  0  0  0  0  0  0999 V2000
   15.7413   57.0879   81.0902 C   0  0  0  0  0  0  0  0  0  0  0  0
   10.2358   58.4523   80.9142 C   0  0  0  0  0  0  0  0  0  0  0  0
   14.8072   56.2821   81.7813 C   0  0  0  0  0  0  0  0  0  0  0  0
    9.0752   57.3968   79.6213 C   0  0  0  0  0  0  0  0  0  0  0  0
    9.5643   58.2629   81.8016 O   0  0  0  0  0  0  0  0  0  0  0  0
   14.2885   58.1399   80.1339 O   0  0  0  0  0  0  0  0  0  0  0  0
   11.3303   59.8926   82.0216 O   0  0  0  0  0  0  0  0  0  0  0  0
   13.8138   57.7548   80.3900 C   0  0  0  0  0  0  0  0  0  0  0  0
   10.8242   58.9079   79.5276 O   0  0  0  0  0  0  0  0  0  0  0  0
   14.4280   55.8592   82.9296 O   0  0  0  0  0  0  0  0  0  0  0  0
   16.5619   57.4954   81.0474 O   0  0  0  0  0  0  0  0  0  0  0  0
   11.8072   57.7238   80.5129 C   0  0  0  0  0  0  0  0  0  0  0  0
   13.1693   56.1516   81.1246 C   0  0  0  0  0  0  0  0  0  0  0  0
   12.3801   56.0280   82.4835 O   0  0  0  0  0  0  0  0  0  0  0  0
   12.3646   59.0057   79.7371 C   0  0  0  0  0  0  0  0  0  0  0  0
  3  1  1  0
  5  2  1  0
  5  4  1  0
  7  2  1  0
  8  6  2  0
  9  2  1  0
 10  3  1  0
 11  1  1  0
 12  2  1  0
 12  8  1  0
 13  3  1  0
 13  8  1  0
 14 13  1  0
 15  9  1  0
 15 12  1  0
M  END
>  <ID>  (1) 
conformer_0

$$$$
