
     RDKit          3D

 15 15  0  0  0  0  0  0  0  0999 V2000
   15.8845   56.9758   80.7761 C   0  0  0  0  0  0  0  0  0  0  0  0
   14.7195   56.4268   81.6825 C   0  0  0  0  0  0  0  0  0  0  0  0
   10.2555   59.1835   81.5389 C   0  0  0  0  0  0  0  0  0  0  0  0
    9.4835   57.1180   79.5270 C   0  0  0  0  0  0  0  0  0  0  0  0
   16.5690   57.7415   80.4643 O   0  0  0  0  0  0  0  0  0  0  0  0
    8.8884   58.2310   81.6889 O   0  0  0  0  0  0  0  0  0  0  0  0
   12.3937   59.0200   79.4956 O   0  0  0  0  0  0  0  0  0  0  0  0
   10.9413   59.8516   81.9861 O   0  0  0  0  0  0  0  0  0  0  0  0
   12.6902   56.1120   82.4310 O   0  0  0  0  0  0  0  0  0  0  0  0
   14.4356   57.9147   80.1434 C   0  0  0  0  0  0  0  0  0  0  0  0
   12.3644   58.2220   80.2844 C   0  0  0  0  0  0  0  0  0  0  0  0
   12.9698   57.1538   81.0979 C   0  0  0  0  0  0  0  0  0  0  0  0
   14.5760   56.7306   82.6647 O   0  0  0  0  0  0  0  0  0  0  0  0
   10.0116   57.6542   80.6753 C   0  0  0  0  0  0  0  0  0  0  0  0
   10.5593   57.5488   81.0193 O   0  0  0  0  0  0  0  0  0  0  0  0
  2  1  1  0
  5  1  1  0
  6  3  1  0
  8  3  1  0
 10  1  1  0
 11  7  2  0
 12  9  1  0
 12 10  1  0
 12 11  1  0
 13  2  1  0
 14  4  1  0
 14  6  1  0
 14 11  1  0
 15  3  1  0
 15 14  1  0
M  END
>  <ID>  (1) 
conformer_0

$$$$
