
     RDKit          3D

 15 15  0  0  0  0  0  0  0  0999 V2000
   14.7414   56.3973   81.6113 C   0  0  0  0  0  0  0  0  0  0  0  0
   13.1567   56.4829   81.1520 C   0  0  0  0  0  0  0  0  0  0  0  0
   13.2495   58.2100   80.0371 C   0  0  0  0  0  0  0  0  0  0  0  0
   11.4627   57.7849   80.3444 C   0  0  0  0  0  0  0  0  0  0  0  0
    9.0160   57.5875   79.6360 C   0  0  0  0  0  0  0  0  0  0  0  0
   17.0562   57.5748   80.7512 O   0  0  0  0  0  0  0  0  0  0  0  0
    9.3689   58.0127   81.8082 O   0  0  0  0  0  0  0  0  0  0  0  0
   11.1065   59.0818   79.6418 O   0  0  0  0  0  0  0  0  0  0  0  0
   11.1130   59.9062   82.3322 O   0  0  0  0  0  0  0  0  0  0  0  0
   13.1404   55.3799   82.5984 O   0  0  0  0  0  0  0  0  0  0  0  0
    9.6850   58.7318   80.9813 C   0  0  0  0  0  0  0  0  0  0  0  0
   11.4177   56.8942   81.2183 O   0  0  0  0  0  0  0  0  0  0  0  0
   15.0943   57.9852   80.0135 O   0  0  0  0  0  0  0  0  0  0  0  0
   15.2880   56.8529   82.8056 O   0  0  0  0  0  0  0  0  0  0  0  0
   15.4821   57.5573   80.4944 C   0  0  0  0  0  0  0  0  0  0  0  0
  2  1  1  0
  4  3  1  0
  8  4  1  0
 10  2  1  0
 11  5  1  0
 11  7  1  0
 11  8  1  0
 11  9  1  0
 12  2  1  0
 12  4  1  0
 13  3  1  0
 14  1  1  0
 15  1  1  0
 15  6  1  0
 15 13  1  0
M  END
>  <ID>  (1) 
conformer_0

$$$$
