
     RDKit          3D

 12 11  0  0  0  0  0  0  0  0999 V2000
   15.2695   57.2920   80.7163 C   0  0  0  0  0  0  0  0  0  0  0  0
    9.3939   57.6614   79.3139 C   0  0  0  0  0  0  0  0  0  0  0  0
   12.3003   57.5362   80.8734 C   0  0  0  0  0  0  0  0  0  0  0  0
   10.7722   58.3019   80.7625 C   0  0  0  0  0  0  0  0  0  0  0  0
   13.9624   56.5659   81.5811 C   0  0  0  0  0  0  0  0  0  0  0  0
   10.7151   59.6497   82.2214 O   0  0  0  0  0  0  0  0  0  0  0  0
    9.4776   57.8621   81.7276 O   0  0  0  0  0  0  0  0  0  0  0  0
   16.1749   57.0212   81.4963 O   0  0  0  0  0  0  0  0  0  0  0  0
   12.7418   58.7243   79.4363 O   0  0  0  0  0  0  0  0  0  0  0  0
   13.8492   55.8536   82.9232 O   0  0  0  0  0  0  0  0  0  0  0  0
   13.8071   58.4207   79.7859 C   0  0  0  0  0  0  0  0  0  0  0  0
   11.5086   56.8704   80.8199 O   0  0  0  0  0  0  0  0  0  0  0  0
  5  1  1  0
  5  3  1  0
  6  4  1  0
  7  2  1  0
  7  4  1  0
  8  1  1  0
  9  3  1  0
 10  5  1  0
 11  9  1  0
 12  3  1  0
 12  4  1  0
M  END
>  <ID>  (1) 
conformer_0

$$$$
