
     RDKit          3D

 16 15  0  0  0  0  0  0  0  0999 V2000
   14.8012   56.0592   81.8873 C   0  0  0  0  0  0  0  0  0  0  0  0
   10.4032   57.5052   79.5231 C   0  0  0  0  0  0  0  0  0  0  0  0
   13.3376   56.6866   81.0477 C   0  0  0  0  0  0  0  0  0  0  0  0
   14.0194   58.3134   80.1369 C   0  0  0  0  0  0  0  0  0  0  0  0
    9.1562   58.3149   81.6243 O   0  0  0  0  0  0  0  0  0  0  0  0
   12.1547   59.3382   79.4302 O   0  0  0  0  0  0  0  0  0  0  0  0
   12.1400   58.3998   80.3323 C   0  0  0  0  0  0  0  0  0  0  0  0
   10.7005   60.0500   82.2942 O   0  0  0  0  0  0  0  0  0  0  0  0
   16.6169   57.1996   81.2318 O   0  0  0  0  0  0  0  0  0  0  0  0
   12.5746   55.7128   82.4487 O   0  0  0  0  0  0  0  0  0  0  0  0
   15.1308   56.1956   83.1335 O   0  0  0  0  0  0  0  0  0  0  0  0
   14.3709   58.1173   80.1826 O   0  0  0  0  0  0  0  0  0  0  0  0
    9.2245   57.5818   79.2165 C   0  0  0  0  0  0  0  0  0  0  0  0
   11.1430   58.9464   81.4019 N   0  0  0  0  0  0  0  0  0  0  0  0
   10.3292   58.4262   81.1071 C   0  0  0  0  0  0  0  0  0  0  0  0
   15.3145   57.0706   81.2004 C   0  0  0  0  0  0  0  0  0  0  0  0
  3  1  1  0
  7  4  1  0
  7  6  1  0
 10  3  1  0
 11  1  1  0
 12  4  1  0
 13  2  1  0
 14  8  1  0
 15  2  1  0
 15  5  1  0
 15  7  1  0
 15 14  1  0
 16  1  1  0
 16  9  1  0
 16 12  1  0
M  END
>  <ID>  (1) 
conformer_0

$$$$
