
     RDKit          3D

 25 27  0  0  0  0  0  0  0  0999 V2000
   63.2087   -8.4108  -68.5983 C   0  0  0  0  0  0  0  0  0  0  0  0
   67.2571   -3.1304  -68.0776 C   0  0  0  0  0  0  0  0  0  0  0  0
   64.6701   -4.7365  -69.1527 C   0  0  0  0  0  0  0  0  0  0  0  0
   63.8740   -9.5987  -67.8874 C   0  0  0  0  0  0  0  0  0  0  0  0
   60.7395   -9.9224  -68.1894 O   0  0  0  0  0  0  0  0  0  0  0  0
   66.1665   -2.7350  -67.0697 C   0  0  0  0  0  0  0  0  0  0  0  0
   69.5558   -1.1958  -65.6626 C   0  0  0  0  0  0  0  0  0  0  0  0
   67.0991   -4.6001  -68.3442 C   0  0  0  0  0  0  0  0  0  0  0  0
   71.8075   -3.9114  -66.6056 O   0  0  0  0  0  0  0  0  0  0  0  0
   70.7407   -2.0215  -65.5566 C   0  0  0  0  0  0  0  0  0  0  0  0
   70.7431   -3.2189  -66.3886 C   0  0  0  0  0  0  0  0  0  0  0  0
   69.5668   -3.6289  -67.1711 C   0  0  0  0  0  0  0  0  0  0  0  0
   61.5718  -10.2270  -69.3323 C   0  0  0  0  0  0  0  0  0  0  0  0
   62.3547   -8.9121  -69.7376 C   0  0  0  0  0  0  0  0  0  0  0  0
   65.1623   -7.3000  -67.5716 C   0  0  0  0  0  0  0  0  0  0  0  0
   62.8968   -5.8668  -70.4486 C   0  0  0  0  0  0  0  0  0  0  0  0
   61.5766   -6.6124  -70.5289 C   0  0  0  0  0  0  0  0  0  0  0  0
   68.3668   -1.6725  -66.3548 C   0  0  0  0  0  0  0  0  0  0  0  0
   64.1853   -7.2527  -68.7570 C   0  0  0  0  0  0  0  0  0  0  0  0
   62.7142   -4.3703  -70.8319 C   0  0  0  0  0  0  0  0  0  0  0  0
   63.6175   -5.8832  -69.1008 C   0  0  0  0  0  0  0  0  0  0  0  0
   65.3020   -5.8920  -66.9967 C   0  0  0  0  0  0  0  0  0  0  0  0
   68.5702   -2.6139  -67.5542 C   0  0  0  0  0  0  0  0  0  0  0  0
   65.6999   -5.0089  -68.1480 C   0  0  0  0  0  0  0  0  0  0  0  0
   61.3375   -7.9584  -70.1145 O   0  0  0  0  0  0  0  0  0  0  0  0
  1  4  1  0
  1 14  1  0
  1 19  1  0
  2  6  1  0
  2  8  1  0
  2 23  1  0
  3 21  1  0
  3 24  1  0
  5 13  1  0
  7 10  1  0
  7 18  1  0
  8 24  1  0
  9 11  1  0
 10 11  2  0
 11 12  1  0
 12 23  1  0
 13 14  1  0
 14 25  1  0
 15 19  1  0
 15 22  1  0
 16 17  1  0
 16 20  1  0
 16 21  1  0
 17 25  1  0
 18 23  1  0
 19 21  1  0
 22 24  1  0
M  END
>  <ID>  (1) 
conformer_0

$$$$
