
     RDKit          3D

 34 38  0  0  0  0  0  0  0  0999 V2000
   67.4766   -3.6397  -67.8781 C   0  0  0  0  0  0  0  0  0  0  0  0
   63.4350   -6.6119  -68.2011 P   0  0  0  0  0  4  0  0  0  0  0  0
   68.5577   -5.7803  -67.7649 C   0  0  0  0  0  0  0  0  0  0  0  0
   65.7603   -2.1309  -69.2487 C   0  0  0  0  0  0  0  0  0  0  0  0
   62.6117   -8.5776  -69.3572 C   0  0  0  0  0  0  0  0  0  0  0  0
   68.5529   -3.0536  -67.1797 C   0  0  0  0  0  0  0  0  0  0  0  0
   68.6026   -1.7169  -66.8354 C   0  0  0  0  0  0  0  0  0  0  0  0
   64.2868   -4.3852  -69.2857 C   0  0  0  0  0  0  0  0  0  0  0  0
   61.5132  -10.7067  -68.8447 C   0  0  0  0  0  0  0  0  0  0  0  0
   71.0074   -2.5269  -65.2070 C   0  0  0  0  0  0  0  0  0  0  0  0
   63.9738   -8.6829  -67.1523 C   0  0  0  0  0  0  0  0  0  0  0  0
   60.2929  -10.8945  -68.9274 O   0  0  0  0  0  0  0  0  0  0  0  0
   65.2932   -4.7611  -68.6465 C   0  0  0  0  0  0  0  0  0  0  0  0
   62.9634   -8.1700  -68.0546 N   0  0  0  0  0  0  0  0  0  0  0  0
   62.7643   -7.5742  -70.2737 C   0  0  0  0  0  0  0  0  0  0  0  0
   63.7522   -3.3798  -69.9723 C   0  0  0  0  0  0  0  0  0  0  0  0
   66.0824   -5.6578  -68.0725 C   0  0  0  0  0  0  0  0  0  0  0  0
   62.7271   -6.0793  -67.1065 O   0  0  0  0  0  1  0  0  0  0  0  0
   62.1643  -11.2211  -67.9215 O   0  0  0  0  0  0  0  0  0  0  0  0
   62.1965   -9.8563  -69.7771 C   0  0  0  0  0  0  0  0  0  0  0  0
   69.6150   -3.8823  -66.7630 C   0  0  0  0  0  0  0  0  0  0  0  0
   70.6527   -3.5068  -65.9564 C   0  0  0  0  0  0  0  0  0  0  0  0
   66.5452   -2.8875  -68.5310 C   0  0  0  0  0  0  0  0  0  0  0  0
   62.7941   -9.2186  -72.0345 C   0  0  0  0  0  0  0  0  0  0  0  0
   64.5823   -2.2162  -69.9348 C   0  0  0  0  0  0  0  0  0  0  0  0
   64.9831   -6.5983  -67.9417 C   0  0  0  0  0  0  0  0  0  0  0  0
   70.4095   -1.2337  -65.2279 C   0  0  0  0  0  0  0  0  0  0  0  0
   62.9217   -7.8931  -71.6404 C   0  0  0  0  0  0  0  0  0  0  0  0
   62.4126  -10.1803  -71.1306 C   0  0  0  0  0  0  0  0  0  0  0  0
   67.4042   -5.0670  -67.8585 C   0  0  0  0  0  0  0  0  0  0  0  0
   69.3678   -0.9907  -66.0438 C   0  0  0  0  0  0  0  0  0  0  0  0
   65.0492   -7.6336  -66.8311 C   0  0  0  0  0  0  0  0  0  0  0  0
   62.7899   -6.3130  -69.6338 C   0  0  0  0  0  0  0  0  0  0  0  0
   69.7048   -5.2155  -67.2353 C   0  0  0  0  0  0  0  0  0  0  0  0
  1  6  1  0
  1 23  2  0
  1 30  1  0
  2 18  2  0
  2 26  1  0
  2 33  1  0
  3 30  1  0
  3 34  2  0
  4 23  2  0
  4 25  1  0
  5 14  1  0
  5 15  1  0
  5 20  1  0
  6  7  1  0
  6 21  1  0
  7 31  2  0
  8 13  2  0
  8 16  1  0
  9 12  2  0
  9 19  1  0
  9 20  1  0
 10 22  1  0
 10 27  2  0
 11 14  1  0
 11 32  1  0
 13 17  1  0
 15 28  2  0
 15 33  1  0
 16 25  1  0
 17 26  1  0
 17 30  1  0
 20 29  1  0
 21 22  2  0
 21 34  1  0
 24 28  1  0
 24 29  2  0
 26 32  1  0
 27 31  1  0
M  END
>  <ID>  (1) 
conformer_0

$$$$
