
     RDKit          3D

 24 27  0  0  0  0  0  0  0  0999 V2000
   66.6863   -6.0260  -68.0478 N   0  0  0  0  0  0  0  0  0  0  0  0
   63.7017  -10.1335  -69.3737 C   0  0  0  0  0  0  0  0  0  0  0  0
   63.4879   -5.4318  -69.1856 C   0  0  0  0  0  0  0  0  0  0  0  0
   61.6768   -5.1067  -70.6581 C   0  0  0  0  0  0  0  0  0  0  0  0
   63.7340   -9.6227  -67.9882 N   0  0  0  0  0  0  0  0  0  0  0  0
   69.2964   -3.8202  -66.9635 C   0  0  0  0  0  0  0  0  0  0  0  0
   62.8312   -8.3910  -68.0493 C   0  0  0  0  0  0  0  0  0  0  0  0
   63.7531   -7.2332  -67.5245 C   0  0  0  0  0  0  0  0  0  0  0  0
   62.2329   -5.7836  -69.6123 C   0  0  0  0  0  0  0  0  0  0  0  0
   69.5743   -2.5651  -66.5222 C   0  0  0  0  0  0  0  0  0  0  0  0
   68.6113   -1.5686  -66.6447 C   0  0  0  0  0  0  0  0  0  0  0  0
   67.8616   -5.4724  -67.7731 C   0  0  0  0  0  0  0  0  0  0  0  0
   65.5211   -5.3752  -68.3544 C   0  0  0  0  0  0  0  0  0  0  0  0
   67.1306   -3.0256  -67.6145 C   0  0  0  0  0  0  0  0  0  0  0  0
   63.5937   -3.5961  -70.7503 C   0  0  0  0  0  0  0  0  0  0  0  0
   68.0258   -4.0850  -67.4772 C   0  0  0  0  0  0  0  0  0  0  0  0
   64.7677   -7.8962  -66.5666 C   0  0  0  0  0  0  0  0  0  0  0  0
   61.6296   -9.2072  -68.6426 C   0  0  0  0  0  0  0  0  0  0  0  0
   62.3571   -4.0274  -71.2444 C   0  0  0  0  0  0  0  0  0  0  0  0
   65.3196   -4.1784  -69.0098 C   0  0  0  0  0  0  0  0  0  0  0  0
   62.2324  -10.0992  -69.6984 C   0  0  0  0  0  0  0  0  0  0  0  0
   64.3104   -6.0800  -68.2814 N   0  0  0  0  0  0  0  0  0  0  0  0
   64.1337   -4.3002  -69.6892 C   0  0  0  0  0  0  0  0  0  0  0  0
   67.3742   -1.8029  -67.2164 C   0  0  0  0  0  0  0  0  0  0  0  0
  1 12  2  3
  1 13  1  0
  2  5  1  0
  2 21  1  0
  3  9  1  0
  3 22  1  0
  3 23  2  0
  4  9  2  0
  4 19  1  0
  5  7  1  0
  6 10  2  0
  6 16  1  0
  7  8  1  0
  7 18  1  0
  8 17  1  0
  8 22  1  0
 10 11  1  0
 11 24  1  0
 12 16  1  0
 13 20  1  0
 13 22  1  0
 14 16  1  0
 14 24  2  0
 15 19  2  0
 15 23  1  0
 18 21  1  0
 20 23  1  0
M  END
>  <ID>  (1) 
conformer_0

$$$$
