
     RDKit          3D

 31 33  0  0  0  0  0  0  0  0999 V2000
   66.1527   -5.8920  -68.1136 C   0  0  0  0  0  0  0  0  0  0  0  0
   66.9790   -4.9907  -67.9458 N   0  0  0  0  0  0  0  0  0  0  0  0
   70.2943   -6.0534  -67.1807 O   0  0  0  0  0  0  0  0  0  0  0  0
   64.7367   -4.3064  -69.1027 C   0  0  0  0  0  0  0  0  0  0  0  0
   61.1454   -6.4603  -70.3063 O   0  0  0  0  0  0  0  0  0  0  0  0
   69.2710   -1.5082  -66.1331 C   0  0  0  0  0  0  0  0  0  0  0  0
   60.4712  -10.1357  -68.2569 O   0  0  0  0  0  0  0  0  0  0  0  0
   63.9446  -10.3195  -69.1620 C   0  0  0  0  0  0  0  0  0  0  0  0
   72.9702   -7.3290  -66.1531 C   0  0  0  0  0  0  0  0  0  0  0  0
   64.5821   -8.0002  -68.2330 C   0  0  0  0  0  0  0  0  0  0  0  0
   70.8087   -5.0002  -66.6430 C   0  0  0  0  0  0  0  0  0  0  0  0
   67.8524   -2.9798  -67.3727 C   0  0  0  0  0  0  0  0  0  0  0  0
   68.8470   -3.9189  -67.1260 C   0  0  0  0  0  0  0  0  0  0  0  0
   63.6546   -3.9661  -70.1014 C   0  0  0  0  0  0  0  0  0  0  0  0
   66.7561   -3.6633  -68.0899 C   0  0  0  0  0  0  0  0  0  0  0  0
   72.0954   -5.0077  -66.2242 N   0  0  0  0  0  0  0  0  0  0  0  0
   63.0494   -6.3413  -67.2544 O   0  0  0  0  0  0  0  0  0  0  0  0
   61.7646   -7.7389  -70.7018 C   0  0  0  0  0  0  0  0  0  0  0  0
   64.8872   -5.5970  -68.4970 C   0  0  0  0  0  0  0  0  0  0  0  0
   68.0681   -1.7764  -66.8318 C   0  0  0  0  0  0  0  0  0  0  0  0
   73.0830   -5.9331  -66.7090 C   0  0  0  0  0  0  0  0  0  0  0  0
   63.9368   -6.6874  -68.1243 C   0  0  0  0  0  0  0  0  0  0  0  0
   62.4333   -8.7150  -67.9897 C   0  0  0  0  0  0  0  0  0  0  0  0
   62.5734  -10.0112  -69.9339 C   0  0  0  0  0  0  0  0  0  0  0  0
   73.1850   -7.3422  -64.6598 C   0  0  0  0  0  0  0  0  0  0  0  0
   61.4047  -10.7881  -69.2113 C   0  0  0  0  0  0  0  0  0  0  0  0
   70.2464   -2.5049  -66.0308 C   0  0  0  0  0  0  0  0  0  0  0  0
   65.6502   -3.3051  -68.8344 C   0  0  0  0  0  0  0  0  0  0  0  0
   63.8906   -9.3178  -67.8989 C   0  0  0  0  0  0  0  0  0  0  0  0
   62.3392   -8.5208  -69.5227 C   0  0  0  0  0  0  0  0  0  0  0  0
   70.0179   -3.7990  -66.5565 C   0  0  0  0  0  0  0  0  0  0  0  0
  1  2  2  0
  1 19  1  0
  2 15  1  0
  3 11  2  0
  4 14  1  0
  4 19  1  0
  4 28  1  0
  5 18  1  0
  6 20  2  0
  6 27  1  0
  7 26  1  0
  8 24  1  0
  8 29  1  0
  9 21  1  0
  9 25  1  0
 10 22  1  0
 10 29  1  0
 11 16  1  0
 11 31  1  0
 12 13  2  0
 12 15  1  0
 12 20  1  0
 13 31  1  0
 15 28  2  0
 16 21  1  0
 17 22  1  0
 18 30  1  0
 19 22  1  0
 23 29  1  0
 23 30  1  0
 24 26  1  0
 24 30  1  0
 27 31  2  0
M  END
>  <ID>  (1) 
conformer_0

$$$$
