
     RDKit          3D

 34 40  0  0  0  0  0  0  0  0999 V2000
   62.4910   -7.5937  -69.5012 C   0  0  0  0  0  0  0  0  0  0  0  0
   62.2748   -5.1765  -70.3675 C   0  0  0  0  0  0  0  0  0  0  0  0
   61.9789   -3.9089  -70.9070 C   0  0  0  0  0  0  0  0  0  0  0  0
   66.3264   -6.2713  -68.0157 C   0  0  0  0  0  0  0  0  0  0  0  0
   70.2426   -1.6490  -65.4611 C   0  0  0  0  0  0  0  0  0  0  0  0
   64.0401   -0.9007  -71.1953 O   0  0  0  0  0  0  0  0  0  0  0  0
   66.0476   -2.5436  -68.9064 C   0  0  0  0  0  0  0  0  0  0  0  0
   61.0248   -9.2889  -68.6320 O   0  0  0  0  0  0  0  0  0  0  0  0
   62.0212   -1.4275  -71.7988 O   0  0  0  0  0  0  0  0  0  0  0  0
   63.3264   -9.7814  -68.1357 C   0  0  0  0  0  0  0  0  0  0  0  0
   65.8004   -1.4544  -69.4674 O   0  0  0  0  0  0  0  0  0  0  0  0
   67.0847   -2.3474  -67.9468 C   0  0  0  0  0  0  0  0  0  0  0  0
   69.2570   -1.8670  -66.4346 C   0  0  0  0  0  0  0  0  0  0  0  0
   65.3264   -3.7758  -69.1705 C   0  0  0  0  0  0  0  0  0  0  0  0
   67.9116   -4.6047  -68.4134 O   0  0  0  0  0  0  0  0  0  0  0  0
   71.1351   -3.8493  -65.9358 C   0  0  0  0  0  0  0  0  0  0  0  0
   65.7995   -7.2696  -67.1410 C   0  0  0  0  0  0  0  0  0  0  0  0
   68.1516   -3.2758  -68.0876 C   0  0  0  0  0  0  0  0  0  0  0  0
   70.1524   -4.0483  -66.8670 C   0  0  0  0  0  0  0  0  0  0  0  0
   64.0968   -3.6831  -69.8777 C   0  0  0  0  0  0  0  0  0  0  0  0
   65.4522   -5.2777  -68.7009 C   0  0  0  0  0  0  0  0  0  0  0  0
   63.8738   -7.2637  -68.8175 C   0  0  0  0  0  0  0  0  0  0  0  0
   67.7031   -5.8932  -67.7621 C   0  0  0  0  0  0  0  0  0  0  0  0
   63.1076   -1.7142  -71.2464 C   0  0  0  0  0  0  0  0  0  0  0  0
   69.2103   -3.0638  -67.1184 C   0  0  0  0  0  0  0  0  0  0  0  0
   62.3002   -9.1554  -69.1277 C   0  0  0  0  0  0  0  0  0  0  0  0
   61.6424   -6.4915  -70.3405 C   0  0  0  0  0  0  0  0  0  0  0  0
   71.1665   -2.6481  -65.2181 C   0  0  0  0  0  0  0  0  0  0  0  0
   63.1602   -2.9980  -70.6103 C   0  0  0  0  0  0  0  0  0  0  0  0
   64.2615   -9.1154  -67.2234 O   0  0  0  0  0  0  0  0  0  0  0  0
   63.5030   -5.0456  -69.7781 C   0  0  0  0  0  0  0  0  0  0  0  0
   62.3847   -9.9600  -70.4410 C   0  0  0  0  0  0  0  0  0  0  0  0
   64.2856   -5.9241  -69.1123 C   0  0  0  0  0  0  0  0  0  0  0  0
   64.4528   -7.7555  -67.5402 C   0  0  0  0  0  0  0  0  0  0  0  0
  1 22  1  0
  1 26  1  0
  1 27  1  0
  2  3  1  0
  2 27  1  0
  2 31  1  0
  3 29  1  0
  4 17  1  0
  4 21  1  0
  4 23  1  0
  5 13  2  0
  5 28  1  0
  6 24  2  0
  7 11  2  0
  7 12  1  0
  7 14  1  0
  8 26  1  0
  9 24  1  0
 10 26  1  0
 10 30  1  0
 12 18  1  0
 13 25  1  0
 14 20  1  0
 14 21  2  0
 15 18  1  0
 15 23  1  0
 16 19  1  0
 16 28  2  0
 17 34  1  0
 18 25  1  0
 19 25  2  0
 20 29  2  0
 20 31  1  0
 21 33  1  0
 22 33  1  0
 22 34  1  0
 24 29  1  0
 26 32  1  0
 30 34  1  0
 31 33  2  0
M  END
>  <ID>  (1) 
conformer_0

$$$$
