
     RDKit          3D

 40 45  0  0  0  0  0  0  0  0999 V2000
   69.4717   -3.6142  -66.9673 C   0  0  0  0  0  0  0  0  0  0  0  0
   61.2407   -1.2470  -72.0451 O   0  0  0  0  0  0  0  0  0  0  0  0
   63.8245   -9.9036  -70.2193 C   0  0  0  0  0  0  0  0  0  0  0  0
   60.7450  -10.8160  -68.6816 C   0  0  0  0  0  0  0  0  0  0  0  0
   66.2877   -4.0824  -68.8202 C   0  0  0  0  0  0  0  0  0  0  0  0
   63.5864   -1.0809  -71.3119 C   0  0  0  0  0  0  0  0  0  0  0  0
   70.3229   -1.2713  -65.5199 C   0  0  0  0  0  0  0  0  0  0  0  0
   63.6416   -6.2314  -66.7124 O   0  0  0  0  0  0  0  0  0  0  0  0
   62.8529   -5.8207  -69.5175 C   0  0  0  0  0  0  0  0  0  0  0  0
   62.1598   -3.1309  -70.9596 C   0  0  0  0  0  0  0  0  0  0  0  0
   64.6182   -1.6635  -70.6389 N   0  0  0  0  0  0  0  0  0  0  0  0
   61.3607   -9.7876  -69.4838 O   0  0  0  0  0  0  0  0  0  0  0  0
   63.8896   -7.7328  -68.5401 C   0  0  0  0  0  0  0  0  0  0  0  0
   72.0232   -5.4789  -66.9386 O   0  0  0  0  0  0  0  0  0  0  0  0
   69.2070   -6.0595  -67.2481 N   0  0  0  0  0  0  0  0  0  0  0  0
   60.1034   -2.1454  -71.8565 C   0  0  0  0  0  0  0  0  0  0  0  0
   65.3397   -8.0102  -66.6481 C   0  0  0  0  0  0  0  0  0  0  0  0
   63.8543   -4.8108  -69.3353 C   0  0  0  0  0  0  0  0  0  0  0  0
   68.8963   -4.7577  -67.5990 C   0  0  0  0  0  0  0  0  0  0  0  0
   68.0229   -6.8573  -67.2284 C   0  0  0  0  0  0  0  0  0  0  0  0
   63.0196   -8.8653  -68.0928 C   0  0  0  0  0  0  0  0  0  0  0  0
   62.6540   -9.5871  -69.3089 C   0  0  0  0  0  0  0  0  0  0  0  0
   70.6691   -3.6176  -66.1818 C   0  0  0  0  0  0  0  0  0  0  0  0
   68.8030   -2.3922  -67.0855 C   0  0  0  0  0  0  0  0  0  0  0  0
   61.6215   -5.6728  -69.6788 O   0  0  0  0  0  0  0  0  0  0  0  0
   63.4063   -3.5931  -70.1844 C   0  0  0  0  0  0  0  0  0  0  0  0
   65.2108   -4.9264  -68.7684 C   0  0  0  0  0  0  0  0  0  0  0  0
   60.6988   -3.4349  -71.4227 C   0  0  0  0  0  0  0  0  0  0  0  0
   63.3520   -7.1396  -69.6899 O   0  0  0  0  0  0  0  0  0  0  0  0
   64.4820   -2.8274  -70.2181 N   0  0  0  0  0  0  0  0  0  0  0  0
   62.3556   -1.7551  -71.4456 C   0  0  0  0  0  0  0  0  0  0  0  0
   71.6921   -4.6565  -66.0137 C   0  0  0  0  0  0  0  0  0  0  0  0
   65.6378   -6.0380  -68.0375 C   0  0  0  0  0  0  0  0  0  0  0  0
   67.4811   -4.7543  -68.0871 N   0  0  0  0  0  0  0  0  0  0  0  0
   64.6056   -6.9784  -67.4927 C   0  0  0  0  0  0  0  0  0  0  0  0
   69.2093   -1.2663  -66.3929 C   0  0  0  0  0  0  0  0  0  0  0  0
   72.4319   -4.6816  -64.9166 O   0  0  0  0  0  0  0  0  0  0  0  0
   63.7334   -0.0019  -71.9530 N   0  0  0  0  0  0  0  0  0  0  0  0
   71.0252   -2.4383  -65.4150 C   0  0  0  0  0  0  0  0  0  0  0  0
   66.9896   -5.9847  -67.7532 C   0  0  0  0  0  0  0  0  0  0  0  0
  1 19  1  0
  1 23  1  0
  1 24  2  0
  2 16  1  0
  2 31  1  0
  3 22  1  0
  4 12  1  0
  5 27  1  0
  5 34  1  0
  6 11  1  0
  6 31  1  0
  6 38  2  0
  7 36  2  0
  7 39  1  0
  8 35  1  0
  9 18  1  0
  9 25  2  0
  9 29  1  0
 10 26  1  0
 10 28  1  0
 10 31  2  0
 11 30  1  0
 12 22  1  0
 13 21  1  0
 13 29  1  0
 13 35  1  0
 14 32  2  0
 15 19  2  0
 15 20  1  0
 16 28  1  0
 17 35  1  0
 18 26  1  0
 18 27  2  0
 19 34  1  0
 20 40  1  0
 21 22  1  0
 23 32  1  0
 23 39  2  0
 24 36  1  0
 26 30  2  0
 27 33  1  0
 32 37  1  0
 33 35  1  0
 33 40  1  0
 34 40  1  0
M  END
>  <ID>  (1) 
conformer_0

$$$$
