
     RDKit          3D

 35 39  0  0  0  0  0  0  0  0999 V2000
   65.6464   -3.4982  -69.1631 C   0  0  0  0  0  0  0  0  0  0  0  0
   61.5450  -10.7677  -69.2288 C   0  0  0  0  0  0  0  0  0  0  0  0
   71.7128   -4.5477  -66.3646 C   0  0  0  0  0  0  0  0  0  0  0  0
   65.7436   -6.7287  -67.2586 C   0  0  0  0  0  0  0  0  0  0  0  0
   63.3814   -5.0697  -69.5964 C   0  0  0  0  0  0  0  0  0  0  0  0
   63.3779   -9.5862  -67.9016 C   0  0  0  0  0  0  0  0  0  0  0  0
   64.0126   -6.1565  -68.7985 C   0  0  0  0  0  0  0  0  0  0  0  0
   73.9517   -4.9614  -65.4239 C   0  0  0  0  0  0  0  0  0  0  0  0
   67.8145   -5.0274  -68.0548 C   0  0  0  0  0  0  0  0  0  0  0  0
   62.3551   -8.1162  -69.3140 N   0  0  0  0  0  0  0  0  0  0  0  0
   72.5941   -4.3884  -65.2558 N   0  0  0  0  0  0  0  0  0  0  0  0
   62.2987   -5.2490  -70.1493 O   0  0  0  0  0  0  0  0  0  0  0  0
   60.4845  -11.0002  -68.1786 C   0  0  0  0  0  0  0  0  0  0  0  0
   63.8174   -2.6389  -70.3054 C   0  0  0  0  0  0  0  0  0  0  0  0
   70.4720   -1.2504  -65.3185 C   0  0  0  0  0  0  0  0  0  0  0  0
   70.6780   -3.5751  -66.2605 C   0  0  0  0  0  0  0  0  0  0  0  0
   67.5552   -2.7943  -67.9962 C   0  0  0  0  0  0  0  0  0  0  0  0
   62.3834   -9.4521  -68.8287 C   0  0  0  0  0  0  0  0  0  0  0  0
   63.4496   -7.4575  -68.6853 N   0  0  0  0  0  0  0  0  0  0  0  0
   66.9667   -3.9027  -68.3885 C   0  0  0  0  0  0  0  0  0  0  0  0
   69.4955   -3.7282  -66.9691 C   0  0  0  0  0  0  0  0  0  0  0  0
   64.0569   -8.3564  -67.8251 C   0  0  0  0  0  0  0  0  0  0  0  0
   65.1553   -7.9464  -67.1022 C   0  0  0  0  0  0  0  0  0  0  0  0
   65.8356   -2.2351  -69.5938 N   0  0  0  0  0  0  0  0  0  0  0  0
   64.8195   -1.7634  -70.2499 C   0  0  0  0  0  0  0  0  0  0  0  0
   74.3439   -5.7077  -64.4680 O   0  0  0  0  0  0  0  0  0  0  0  0
   70.9296   -2.5105  -65.4737 C   0  0  0  0  0  0  0  0  0  0  0  0
   74.6610   -4.4979  -66.3770 O   0  0  0  0  0  0  0  0  0  0  0  0
   62.4721   -2.3290  -70.9490 C   0  0  0  0  0  0  0  0  0  0  0  0
   68.6544   -2.6535  -67.2527 C   0  0  0  0  0  0  0  0  0  0  0  0
   68.7510   -1.3723  -66.9102 C   0  0  0  0  0  0  0  0  0  0  0  0
   65.1828   -5.8833  -68.1620 C   0  0  0  0  0  0  0  0  0  0  0  0
   69.0480   -4.9632  -67.4550 C   0  0  0  0  0  0  0  0  0  0  0  0
   69.4733   -0.6980  -66.0228 C   0  0  0  0  0  0  0  0  0  0  0  0
   64.2606   -3.8092  -69.6554 N   0  0  0  0  0  0  0  0  0  0  0  0
  1 20  1  0
  1 24  2  0
  1 35  1  0
  2 13  1  0
  2 18  1  0
  3 11  1  0
  3 16  1  0
  4 23  1  0
  4 32  2  0
  5  7  1  0
  5 12  2  0
  5 35  1  0
  6 18  1  0
  6 22  1  0
  7 19  1  0
  7 32  1  0
  8 11  1  0
  8 26  2  0
  8 28  1  0
  9 20  2  0
  9 33  1  0
 10 18  1  0
 10 19  1  0
 14 25  1  0
 14 29  1  0
 14 35  1  0
 15 27  2  0
 15 34  1  0
 16 21  1  0
 16 27  1  0
 17 20  1  0
 17 30  2  0
 19 22  1  0
 21 30  1  0
 21 33  2  0
 22 23  2  0
 24 25  1  0
 30 31  1  0
 31 34  2  0
M  END
>  <ID>  (1) 
conformer_0

$$$$
