
     RDKit          3D

 27 29  0  0  0  0  0  0  0  0999 V2000
   65.6342   -3.0274  -69.3238 C   0  0  0  0  0  0  0  0  0  0  0  0
   68.8641   -4.5279  -67.3296 C   0  0  0  0  0  0  0  0  0  0  0  0
   61.4962  -10.0706  -68.4375 C   0  0  0  0  0  0  0  0  0  0  0  0
   70.7504   -2.2657  -65.1581 O   0  0  0  0  0  0  0  0  0  0  0  0
   65.2163   -7.4524  -67.0507 C   0  0  0  0  0  0  0  0  0  0  0  0
   63.4598   -5.9800  -68.9071 C   0  0  0  0  0  0  0  0  0  0  0  0
   61.2555  -10.6074  -69.7297 C   0  0  0  0  0  0  0  0  0  0  0  0
   64.1744   -4.6443  -69.3757 C   0  0  0  0  0  0  0  0  0  0  0  0
   62.2413   -6.1389  -69.6697 O   0  0  0  0  0  0  0  0  0  0  0  0
   69.8403   -3.8535  -66.6526 C   0  0  0  0  0  0  0  0  0  0  0  0
   64.3636  -10.2227  -68.9834 O   0  0  0  0  0  0  0  0  0  0  0  0
   62.5152   -9.1717  -68.1748 N   0  0  0  0  0  0  0  0  0  0  0  0
   67.9167   -1.6600  -67.2142 C   0  0  0  0  0  0  0  0  0  0  0  0
   66.5806   -2.2911  -68.9100 N   0  0  0  0  0  0  0  0  0  0  0  0
   64.5156   -7.0933  -69.3168 C   0  0  0  0  0  0  0  0  0  0  0  0
   68.9079   -1.5583  -66.3734 C   0  0  0  0  0  0  0  0  0  0  0  0
   70.9911   -4.5045  -66.4707 O   0  0  0  0  0  0  0  0  0  0  0  0
   63.1256   -5.8408  -67.4873 O   0  0  0  0  0  0  0  0  0  0  0  0
   64.7174   -8.1158  -68.2503 N   0  0  0  0  0  0  0  0  0  0  0  0
   66.5618   -4.9476  -68.1266 C   0  0  0  0  0  0  0  0  0  0  0  0
   65.3938   -4.2472  -68.6211 C   0  0  0  0  0  0  0  0  0  0  0  0
   67.4261   -2.6926  -67.9151 C   0  0  0  0  0  0  0  0  0  0  0  0
   67.6598   -4.0873  -67.7803 C   0  0  0  0  0  0  0  0  0  0  0  0
   66.2484   -6.3137  -67.4584 C   0  0  0  0  0  0  0  0  0  0  0  0
   63.8446   -9.2150  -68.4049 C   0  0  0  0  0  0  0  0  0  0  0  0
   60.4386  -10.0445  -67.6547 O   0  0  0  0  0  0  0  0  0  0  0  0
   69.8197   -2.5424  -66.0573 C   0  0  0  0  0  0  0  0  0  0  0  0
  1 14  2  0
  1 21  1  0
  2 10  2  0
  2 23  1  0
  3  7  1  0
  3 12  1  0
  3 26  2  0
  4 27  1  0
  5 19  1  0
  5 24  1  0
  6  8  1  0
  6  9  1  0
  6 15  1  0
  6 18  1  0
  8 21  1  0
 10 17  1  0
 10 27  1  0
 11 25  2  0
 12 25  1  0
 13 16  2  0
 13 22  1  0
 14 22  1  0
 15 19  1  0
 16 27  1  0
 19 25  1  0
 20 21  1  0
 20 23  1  0
 20 24  1  0
 22 23  1  0
M  END
>  <ID>  (1) 
conformer_0

$$$$
