
     RDKit          3D

 34 38  0  0  0  0  0  0  0  0999 V2000
   65.9802   -5.8609  -67.4310 C   0  0  0  0  0  0  0  0  0  0  0  0
   65.3172   -8.0396  -68.6621 C   0  0  0  0  0  0  0  0  0  0  0  0
   69.0482   -3.7487  -67.0631 C   0  0  0  0  0  0  0  0  0  0  0  0
   61.7422   -5.5289  -70.0623 C   0  0  0  0  0  0  0  0  0  0  0  0
   62.9667   -8.9626  -68.1097 N   0  0  0  0  0  0  0  0  0  0  0  0
   66.8970   -3.4061  -68.2437 C   0  0  0  0  0  0  0  0  0  0  0  0
   61.9276   -9.5625  -68.9578 C   0  0  0  0  0  0  0  0  0  0  0  0
   68.3285   -1.5301  -67.6921 C   0  0  0  0  0  0  0  0  0  0  0  0
   63.3798   -3.8620  -70.0990 C   0  0  0  0  0  0  0  0  0  0  0  0
   62.5959  -10.2322  -70.1138 C   0  0  0  0  0  0  0  0  0  0  0  0
   61.5284   -3.7873  -71.6212 C   0  0  0  0  0  0  0  0  0  0  0  0
   67.2215   -1.9974  -68.3515 C   0  0  0  0  0  0  0  0  0  0  0  0
   67.3487   -5.6047  -67.4457 O   0  0  0  0  0  0  0  0  0  0  0  0
   65.5043   -0.9632  -69.8182 C   0  0  0  0  0  0  0  0  0  0  0  0
   70.0906   -4.4303  -66.5589 N   0  0  0  0  0  0  0  0  0  0  0  0
   65.4520   -7.2573  -67.3982 C   0  0  0  0  0  0  0  0  0  0  0  0
   65.6544   -3.7255  -68.8725 C   0  0  0  0  0  0  0  0  0  0  0  0
   70.8613   -2.7885  -64.8871 O   0  0  0  0  0  0  0  0  0  0  0  0
   66.5218   -1.0956  -69.0414 C   0  0  0  0  0  0  0  0  0  0  0  0
   60.7489   -9.6407  -68.4260 O   0  0  0  0  0  0  0  0  0  0  0  0
   64.9862   -4.9809  -66.6722 C   0  0  0  0  0  0  0  0  0  0  0  0
   62.6699   -3.2638  -71.1358 C   0  0  0  0  0  0  0  0  0  0  0  0
   62.9378   -7.6449  -67.4327 O   0  0  0  0  0  0  0  0  0  0  0  0
   64.0873   -9.9649  -69.9265 C   0  0  0  0  0  0  0  0  0  0  0  0
   64.1302   -7.4204  -66.6673 C   0  0  0  0  0  0  0  0  0  0  0  0
   72.2867   -4.2802  -65.7501 O   0  0  0  0  0  0  0  0  0  0  0  0
   64.3070   -9.0920  -68.7519 C   0  0  0  0  0  0  0  0  0  0  0  0
   67.8149   -4.2698  -67.5761 C   0  0  0  0  0  0  0  0  0  0  0  0
   64.6368   -3.2234  -69.6440 N   0  0  0  0  0  0  0  0  0  0  0  0
   71.1376   -3.7412  -65.7715 C   0  0  0  0  0  0  0  0  0  0  0  0
   61.0266   -5.0149  -71.0970 C   0  0  0  0  0  0  0  0  0  0  0  0
   64.7201   -1.9254  -70.1267 C   0  0  0  0  0  0  0  0  0  0  0  0
   62.8629   -4.9640  -69.5818 N   0  0  0  0  0  0  0  0  0  0  0  0
   69.1891   -2.3714  -67.1069 C   0  0  0  0  0  0  0  0  0  0  0  0
  1 13  1  0
  1 16  1  0
  1 21  1  0
  2 16  1  0
  2 27  1  0
  3 15  1  0
  3 28  2  0
  3 34  1  0
  4 31  1  0
  4 33  1  0
  5  7  1  0
  5 23  1  0
  5 27  1  0
  6 12  1  0
  6 17  2  0
  6 28  1  0
  7 10  1  0
  7 20  2  0
  8 12  1  0
  8 34  2  0
  9 22  1  0
  9 29  1  0
  9 33  2  0
 10 24  1  0
 11 22  2  0
 11 31  1  0
 12 19  2  0
 13 28  1  0
 14 19  1  0
 14 32  2  0
 15 30  1  0
 16 25  1  0
 17 29  1  0
 18 30  2  0
 23 25  1  0
 24 27  1  0
 26 30  1  0
 29 32  1  0
M  END
>  <ID>  (1) 
conformer_0

$$$$
