
     RDKit          3D

 26 29  0  0  0  0  0  0  0  0999 V2000
   67.5488   -3.0695  -67.9521 C   0  0  0  0  0  0  0  0  0  0  0  0
   68.7298   -2.9631  -67.1315 C   0  0  0  0  0  0  0  0  0  0  0  0
   67.3787   -2.0797  -68.7748 O   0  0  0  0  0  0  0  0  0  0  0  0
   63.8070   -8.5797  -67.8874 C   0  0  0  0  0  0  0  0  0  0  0  0
   62.3427  -10.3848  -68.3903 N   0  0  0  0  0  0  0  0  0  0  0  0
   63.1323   -7.7018  -68.7801 C   0  0  0  0  0  0  0  0  0  0  0  0
   65.4129   -4.6649  -68.5672 C   0  0  0  0  0  0  0  0  0  0  0  0
   63.1061   -5.5351  -69.9101 C   0  0  0  0  0  0  0  0  0  0  0  0
   69.7687   -3.8956  -66.9371 N   0  0  0  0  0  0  0  0  0  0  0  0
   70.8212   -3.3962  -66.1590 C   0  0  0  0  0  0  0  0  0  0  0  0
   61.0650   -7.5031  -70.0849 O   0  0  0  0  0  0  0  0  0  0  0  0
   70.4434   -2.0824  -65.7918 C   0  0  0  0  0  0  0  0  0  0  0  0
   61.5481   -9.5562  -69.1685 N   0  0  0  0  0  0  0  0  0  0  0  0
   64.6663   -3.8185  -69.4565 C   0  0  0  0  0  0  0  0  0  0  0  0
   64.8568   -8.1024  -67.0933 C   0  0  0  0  0  0  0  0  0  0  0  0
   63.4200   -9.8880  -67.7786 C   0  0  0  0  0  0  0  0  0  0  0  0
   66.7382   -4.2819  -67.9808 C   0  0  0  0  0  0  0  0  0  0  0  0
   63.6826   -6.3967  -68.9813 C   0  0  0  0  0  0  0  0  0  0  0  0
   63.6123   -4.3069  -70.1568 N   0  0  0  0  0  0  0  0  0  0  0  0
   65.3227   -6.8396  -67.2725 C   0  0  0  0  0  0  0  0  0  0  0  0
   64.8719   -2.3896  -69.6957 C   0  0  0  0  0  0  0  0  0  0  0  0
   69.1217   -1.8162  -66.4174 C   0  0  0  0  0  0  0  0  0  0  0  0
   67.4414   -5.3615  -67.4874 O   0  0  0  0  0  0  0  0  0  0  0  0
   72.0578   -4.0242  -65.8106 C   0  0  0  0  0  0  0  0  0  0  0  0
   61.9263   -8.2132  -69.3731 C   0  0  0  0  0  0  0  0  0  0  0  0
   64.8221   -5.9493  -68.2805 C   0  0  0  0  0  0  0  0  0  0  0  0
  1  2  1  0
  1  3  1  0
  1 17  1  0
  2  9  1  0
  2 22  1  0
  4  6  2  0
  4 15  1  0
  4 16  1  0
  5 13  1  0
  5 16  2  0
  6 18  1  0
  6 25  1  0
  7 14  1  0
  7 17  1  0
  7 26  1  0
  8 18  1  0
  8 19  2  0
  9 10  1  0
 10 12  1  0
 10 24  1  0
 11 25  2  0
 12 22  1  0
 13 25  1  0
 14 19  1  0
 14 21  1  0
 15 20  2  0
 17 23  1  0
 18 26  2  0
 20 26  1  0
M  END
>  <ID>  (1) 
conformer_0

$$$$
