
     RDKit          3D

 27 30  0  0  0  0  0  0  0  0999 V2000
   71.0395   -3.1431  -65.9557 C   0  0  0  0  0  0  0  0  0  0  0  0
   64.0289   -9.1202  -69.4684 C   0  0  0  0  0  0  0  0  0  0  0  0
   62.7589   -6.0231  -67.0290 C   0  0  0  0  0  0  0  0  0  0  0  0
   62.4552   -6.5056  -71.1082 C   0  0  0  0  0  0  0  0  0  0  0  0
   60.9040   -6.9200  -69.0940 C   0  0  0  0  0  0  0  0  0  0  0  0
   71.7427   -3.8930  -66.6383 O   0  0  0  0  0  0  0  0  0  0  0  0
   63.5208   -7.5757  -69.2813 C   0  0  0  0  0  0  0  0  0  0  0  0
   61.6666   -8.9985  -70.2425 C   0  0  0  0  0  0  0  0  0  0  0  0
   63.7586   -9.6124  -67.9834 C   0  0  0  0  0  0  0  0  0  0  0  0
   60.8473   -9.5897  -69.2321 O   0  0  0  0  0  0  0  0  0  0  0  0
   62.9822   -9.8456  -70.4115 C   0  0  0  0  0  0  0  0  0  0  0  0
   64.3680   -8.5506  -67.0188 C   0  0  0  0  0  0  0  0  0  0  0  0
   68.7767   -3.3995  -66.8864 C   0  0  0  0  0  0  0  0  0  0  0  0
   69.8300   -2.4304  -66.5094 C   0  0  0  0  0  0  0  0  0  0  0  0
   65.0857   -6.2914  -68.0147 C   0  0  0  0  0  0  0  0  0  0  0  0
   62.0871   -7.5340  -69.9092 C   0  0  0  0  0  0  0  0  0  0  0  0
   67.7596   -1.3936  -67.9098 O   0  0  0  0  0  0  0  0  0  0  0  0
   66.9646   -4.8894  -68.0124 C   0  0  0  0  0  0  0  0  0  0  0  0
   65.4831   -7.5518  -67.3492 C   0  0  0  0  0  0  0  0  0  0  0  0
   65.4589   -4.9032  -67.6216 C   0  0  0  0  0  0  0  0  0  0  0  0
   63.5095   -4.9329  -69.1837 C   0  0  0  0  0  0  0  0  0  0  0  0
   71.1465   -3.0868  -64.5644 C   0  0  0  0  0  0  0  0  0  0  0  0
   63.5872   -6.2707  -68.3615 C   0  0  0  0  0  0  0  0  0  0  0  0
   67.5988   -2.6664  -67.4640 C   0  0  0  0  0  0  0  0  0  0  0  0
   67.1421   -3.5509  -68.6242 C   0  0  0  0  0  0  0  0  0  0  0  0
   62.9013   -5.1278  -70.5476 C   0  0  0  0  0  0  0  0  0  0  0  0
   64.5711   -4.0231  -68.5893 C   0  0  0  0  0  0  0  0  0  0  0  0
  1  6  2  0
  1 14  1  0
  1 22  1  0
  2  7  1  0
  2  9  1  0
  2 11  1  0
  3 23  1  0
  4 16  1  0
  4 26  1  0
  5 16  1  0
  7 16  1  0
  7 23  1  0
  8 10  1  0
  8 11  1  0
  8 16  1  0
  9 12  1  0
 12 19  1  0
 13 14  1  0
 13 24  1  0
 15 19  1  0
 15 20  1  0
 15 23  1  0
 17 24  1  0
 18 20  1  0
 18 25  1  0
 20 27  1  0
 21 23  1  0
 21 26  1  0
 21 27  1  0
 24 25  1  0
M  END
>  <ID>  (1) 
conformer_0

$$$$
