
     RDKit          3D

 28 31  0  0  0  0  0  0  0  0999 V2000
   64.1203   -8.5444  -67.2868 C   0  0  0  0  0  0  0  0  0  0  0  0
   64.0990   -3.2497  -70.4840 N   0  0  0  0  0  0  0  0  0  0  0  0
   64.6345   -7.6314  -68.3376 C   0  0  0  0  0  0  0  0  0  0  0  0
   60.0010   -5.9755  -70.6097 O   0  0  0  0  0  0  0  0  0  0  0  0
   60.8785   -5.0910  -71.1732 C   0  0  0  0  0  0  0  0  0  0  0  0
   71.6892   -3.6081  -65.5883 C   0  0  0  0  0  0  0  0  0  0  0  0
   64.6280   -8.2797  -66.0277 O   0  0  0  0  0  0  0  0  0  0  0  0
   63.2627   -9.4717  -69.3246 C   0  0  0  0  0  0  0  0  0  0  0  0
   70.5245   -2.7916  -65.4615 O   0  0  0  0  0  0  0  0  0  0  0  0
   64.9963   -6.1777  -68.4846 C   0  0  0  0  0  0  0  0  0  0  0  0
   68.5055   -1.7998  -66.4942 C   0  0  0  0  0  0  0  0  0  0  0  0
   62.8828   -3.6216  -70.8953 C   0  0  0  0  0  0  0  0  0  0  0  0
   67.3767   -2.2448  -67.2712 C   0  0  0  0  0  0  0  0  0  0  0  0
   66.5690   -4.3628  -68.2031 C   0  0  0  0  0  0  0  0  0  0  0  0
   61.7514   -9.3566  -69.2770 C   0  0  0  0  0  0  0  0  0  0  0  0
   63.7424   -9.7530  -67.9496 O   0  0  0  0  0  0  0  0  0  0  0  0
   68.8134   -4.0135  -67.0457 C   0  0  0  0  0  0  0  0  0  0  0  0
   62.8563   -5.6318  -69.7044 C   0  0  0  0  0  0  0  0  0  0  0  0
   65.8454   -3.6809  -69.1065 N   0  0  0  0  0  0  0  0  0  0  0  0
   64.1487   -5.3577  -69.2652 C   0  0  0  0  0  0  0  0  0  0  0  0
   64.7202   -4.0951  -69.6180 C   0  0  0  0  0  0  0  0  0  0  0  0
   62.2112   -4.7944  -70.5560 C   0  0  0  0  0  0  0  0  0  0  0  0
   66.1606   -5.6724  -67.9618 C   0  0  0  0  0  0  0  0  0  0  0  0
   69.4286   -2.9240  -66.2873 C   0  0  0  0  0  0  0  0  0  0  0  0
   64.1298   -8.2545  -69.6268 C   0  0  0  0  0  0  0  0  0  0  0  0
   67.5721   -3.6185  -67.5564 C   0  0  0  0  0  0  0  0  0  0  0  0
   61.1689   -8.5895  -70.1129 O   0  0  0  0  0  0  0  0  0  0  0  0
   61.1196   -9.7303  -68.2366 O   0  0  0  0  0  0  0  0  0  0  0  0
  1  3  1  0
  1  7  2  0
  1 16  1  0
  2 12  2  0
  2 21  1  0
  3 10  1  0
  3 25  1  0
  4  5  1  0
  5 22  1  0
  6  9  1  0
  8 15  1  0
  8 16  1  0
  8 25  1  0
  9 24  1  0
 10 20  2  0
 10 23  1  0
 11 13  1  0
 11 24  1  0
 12 22  1  0
 13 26  1  0
 14 19  1  0
 14 23  2  0
 14 26  1  0
 15 27  2  0
 15 28  1  0
 17 24  1  0
 17 26  1  0
 18 20  1  0
 18 22  2  0
 19 21  2  0
 20 21  1  0
M  END
>  <ID>  (1) 
conformer_0

$$$$
