
     RDKit          3D

 21 23  0  0  0  0  0  0  0  0999 V2000
   61.8383   -6.6988  -70.4911 S   0  0  0  0  0  0  0  0  0  0  0  0
   61.3226  -10.2058  -68.7677 C   0  0  0  0  0  0  0  0  0  0  0  0
   62.4292   -7.9853  -69.5031 C   0  0  0  0  0  0  0  0  0  0  0  0
   68.1738   -2.3020  -66.2902 O   0  0  0  0  0  0  0  0  0  0  0  0
   63.8196   -8.5586  -67.5255 N   0  0  0  0  0  0  0  0  0  0  0  0
   70.4954   -2.0867  -65.1152 O   0  0  0  0  0  0  0  0  0  0  0  0
   68.0819   -3.7249  -66.8448 C   0  0  0  0  0  0  0  0  0  0  0  0
   69.6547   -3.7134  -66.6882 C   0  0  0  0  0  0  0  0  0  0  0  0
   66.5379   -3.7612  -68.8657 C   0  0  0  0  0  0  0  0  0  0  0  0
   67.9372   -3.5924  -68.4091 C   0  0  0  0  0  0  0  0  0  0  0  0
   64.8769   -8.0853  -66.8730 N   0  0  0  0  0  0  0  0  0  0  0  0
   64.2437   -6.6222  -68.4265 C   0  0  0  0  0  0  0  0  0  0  0  0
   69.6533   -2.3268  -66.0741 C   0  0  0  0  0  0  0  0  0  0  0  0
   62.0394   -9.3630  -69.8622 C   0  0  0  0  0  0  0  0  0  0  0  0
   65.8833   -2.4138  -68.9412 C   0  0  0  0  0  0  0  0  0  0  0  0
   64.6017   -5.2900  -68.8399 C   0  0  0  0  0  0  0  0  0  0  0  0
   66.2315   -5.9297  -67.3718 C   0  0  0  0  0  0  0  0  0  0  0  0
   65.8509   -4.8944  -68.3174 C   0  0  0  0  0  0  0  0  0  0  0  0
   63.4572   -7.7236  -68.4776 C   0  0  0  0  0  0  0  0  0  0  0  0
   63.9031   -4.4852  -69.5321 O   0  0  0  0  0  0  0  0  0  0  0  0
   65.2552   -6.9324  -67.4171 C   0  0  0  0  0  0  0  0  0  0  0  0
  1  3  1  0
  2 14  1  0
  3 14  1  0
  3 19  1  0
  4  7  1  0
  4 13  1  0
  5 11  1  0
  5 19  1  0
  6 13  1  0
  7  8  1  0
  7 10  1  0
  8 13  1  0
  9 10  1  0
  9 15  1  0
  9 18  1  0
 11 21  1  0
 12 16  1  0
 12 19  2  0
 12 21  1  0
 16 18  1  0
 16 20  2  0
 17 18  1  0
 17 21  1  0
M  END
>  <ID>  (1) 
conformer_0

$$$$
