
     RDKit          3D

 24 26  0  0  0  0  0  0  0  0999 V2000
   68.0051   -4.1682  -67.3787 C   0  0  0  0  0  0  0  0  0  0  0  0
   69.3437   -3.9279  -67.0222 C   0  0  0  0  0  0  0  0  0  0  0  0
   63.7036   -9.5288  -67.5894 O   0  0  0  0  0  0  0  0  0  0  0  0
   65.4264   -4.6110  -68.1650 C   0  0  0  0  0  0  0  0  0  0  0  0
   61.0617  -10.6812  -68.5229 C   0  0  0  0  0  0  0  0  0  0  0  0
   63.2030   -8.6452  -68.4425 C   0  0  0  0  0  0  0  0  0  0  0  0
   63.3949   -6.1116  -68.9086 N   0  0  0  0  0  0  0  0  0  0  0  0
   64.4190   -6.9994  -66.8888 C   0  0  0  0  0  0  0  0  0  0  0  0
   67.4490   -1.8651  -66.8059 C   0  0  0  0  0  0  0  0  0  0  0  0
   60.6235   -9.4609  -67.9308 O   0  0  0  0  0  0  0  0  0  0  0  0
   66.3134   -5.6574  -67.8932 C   0  0  0  0  0  0  0  0  0  0  0  0
   63.7176   -3.9044  -69.5471 O   0  0  0  0  0  0  0  0  0  0  0  0
   62.4038   -9.9338  -70.5693 C   0  0  0  0  0  0  0  0  0  0  0  0
   62.5789   -8.8337  -69.6824 N   0  0  0  0  0  0  0  0  0  0  0  0
   68.7732   -1.6926  -66.3816 C   0  0  0  0  0  0  0  0  0  0  0  0
   63.3623   -7.2197  -67.9449 C   0  0  0  0  0  0  0  0  0  0  0  0
   69.7031   -2.6964  -66.5138 C   0  0  0  0  0  0  0  0  0  0  0  0
   64.1036   -4.8657  -68.7882 C   0  0  0  0  0  0  0  0  0  0  0  0
   67.6259   -5.3674  -67.7767 N   0  0  0  0  0  0  0  0  0  0  0  0
   67.0562   -3.1256  -67.3264 C   0  0  0  0  0  0  0  0  0  0  0  0
   62.4583   -6.2953  -70.0624 C   0  0  0  0  0  0  0  0  0  0  0  0
   65.8359   -3.3648  -67.8205 N   0  0  0  0  0  0  0  0  0  0  0  0
   61.8650  -11.1520  -69.7521 C   0  0  0  0  0  0  0  0  0  0  0  0
   65.8397   -7.0369  -67.4591 C   0  0  0  0  0  0  0  0  0  0  0  0
  1  2  1  0
  1 19  2  0
  1 20  1  0
  2 17  1  0
  3  6  2  0
  4 11  1  0
  4 18  1  0
  4 22  1  0
  5 10  1  0
  5 23  1  0
  6 14  1  0
  6 16  1  0
  7 16  1  0
  7 18  1  0
  7 21  1  0
  8 16  1  0
  8 24  1  0
  9 15  1  0
  9 20  1  0
 11 19  1  0
 11 24  1  0
 12 18  2  0
 13 14  1  0
 13 23  1  0
 15 17  2  0
 20 22  2  0
M  END
>  <ID>  (1) 
conformer_0

$$$$
