
     RDKit          3D

 33 39  0  0  0  0  0  0  0  0999 V2000
   65.9459   -2.0213  -69.1012 N   0  0  0  0  0  0  0  0  0  0  0  0
   68.9169   -2.2283  -66.8819 C   0  0  0  0  0  0  0  0  0  0  0  0
   67.5628   -4.8928  -67.5266 C   0  0  0  0  0  0  0  0  0  0  0  0
   64.5563   -8.3769  -66.1613 F   0  0  0  0  0  0  0  0  0  0  0  0
   60.9442   -5.0006  -70.6804 C   0  0  0  0  0  0  0  0  0  0  0  0
   59.6389   -5.3820  -70.7233 O   0  0  0  0  0  0  0  0  0  0  0  0
   66.5736   -4.0777  -68.2275 C   0  0  0  0  0  0  0  0  0  0  0  0
   69.5045   -3.4885  -66.6172 C   0  0  0  0  0  0  0  0  0  0  0  0
   62.0565   -5.9670  -70.4057 C   0  0  0  0  0  0  0  0  0  0  0  0
   64.5130   -6.8953  -67.8786 C   0  0  0  0  0  0  0  0  0  0  0  0
   65.4503   -4.8131  -68.6351 C   0  0  0  0  0  0  0  0  0  0  0  0
   70.6262   -1.8299  -65.3130 O   0  0  0  0  0  0  0  0  0  0  0  0
   72.0655   -3.4097  -66.3479 C   0  0  0  0  0  0  0  0  0  0  0  0
   69.6517   -1.1731  -66.1729 C   0  0  0  0  0  0  0  0  0  0  0  0
   63.7189   -7.0031  -69.0704 C   0  0  0  0  0  0  0  0  0  0  0  0
   64.2894   -4.6938  -69.4419 C   0  0  0  0  0  0  0  0  0  0  0  0
   65.6173   -6.0849  -67.9454 C   0  0  0  0  0  0  0  0  0  0  0  0
   64.0439   -3.3943  -69.9911 C   0  0  0  0  0  0  0  0  0  0  0  0
   62.8836   -6.7826  -66.2682 F   0  0  0  0  0  0  0  0  0  0  0  0
   63.9546   -7.3385  -66.6502 C   0  0  0  0  0  0  0  0  0  0  0  0
   68.8149   -4.5919  -67.0275 C   0  0  0  0  0  0  0  0  0  0  0  0
   62.5178   -8.2775  -70.5585 C   0  0  0  0  0  0  0  0  0  0  0  0
   67.8185   -2.0280  -67.6330 C   0  0  0  0  0  0  0  0  0  0  0  0
   63.3458   -5.7838  -69.7093 C   0  0  0  0  0  0  0  0  0  0  0  0
   62.7556   -3.2037  -70.8087 C   0  0  0  0  0  0  0  0  0  0  0  0
   66.8283   -2.7086  -68.3103 C   0  0  0  0  0  0  0  0  0  0  0  0
   64.9022   -2.3695  -69.7522 C   0  0  0  0  0  0  0  0  0  0  0  0
   70.7351   -3.2553  -65.8152 C   0  0  0  0  0  0  0  0  0  0  0  0
   61.7165   -7.2448  -70.8634 N   0  0  0  0  0  0  0  0  0  0  0  0
   62.4839   -9.5137  -71.4119 C   0  0  0  0  0  0  0  0  0  0  0  0
   61.3746   -3.7461  -71.2707 C   0  0  0  0  0  0  0  0  0  0  0  0
   63.4048   -8.1970  -69.5694 N   0  0  0  0  0  0  0  0  0  0  0  0
   66.9247   -6.1897  -67.3890 C   0  0  0  0  0  0  0  0  0  0  0  0
  1 26  1  0
  1 27  2  0
  2  8  1  0
  2 14  1  0
  2 23  2  0
  3  7  1  0
  3 21  1  0
  3 33  1  0
  4 20  1  0
  5  6  1  0
  5  9  1  0
  5 31  1  0
  7 11  1  0
  7 26  2  0
  8 21  2  0
  8 28  1  0
  9 24  1  0
  9 29  2  0
 10 15  1  0
 10 17  1  0
 10 20  1  0
 11 16  1  0
 11 17  1  0
 12 14  1  0
 12 28  1  0
 13 28  1  0
 15 24  1  0
 15 32  2  0
 16 18  2  0
 16 24  1  0
 17 33  1  0
 18 25  1  0
 18 27  1  0
 19 20  1  0
 22 29  1  0
 22 30  1  0
 22 32  1  0
 23 26  1  0
 25 31  2  0
M  END
>  <ID>  (1) 
conformer_0

$$$$
