
     RDKit          3D

 43 50  0  0  0  0  0  0  0  0999 V2000
   63.9620   -6.4060  -68.7332 C   0  0  0  0  0  0  0  0  0  0  0  0
   71.6800   -1.8445  -66.0305 C   0  0  0  0  0  0  0  0  0  0  0  0
   69.5786   -3.5426  -66.7347 C   0  0  0  0  0  0  0  0  0  0  0  0
   61.1085   -3.5741  -72.7969 C   0  0  0  0  0  0  0  0  0  0  0  0
   67.3187   -2.1560  -68.3833 C   0  0  0  0  0  0  0  0  0  0  0  0
   63.3207   -7.5342  -69.2576 O   0  0  0  0  0  0  0  0  0  0  0  0
   59.2525   -4.7963  -71.0609 C   0  0  0  0  0  0  0  0  0  0  0  0
   60.5779   -4.7641  -70.8063 C   0  0  0  0  0  0  0  0  0  0  0  0
   65.7471   -3.6433  -69.2777 C   0  0  0  0  0  0  0  0  0  0  0  0
   62.5173   -9.8968  -69.0827 C   0  0  0  0  0  0  0  0  0  0  0  0
   64.8108   -7.6955  -66.8757 C   0  0  0  0  0  0  0  0  0  0  0  0
   66.5503   -4.4770  -68.4080 C   0  0  0  0  0  0  0  0  0  0  0  0
   64.0583   -8.8609  -67.3744 C   0  0  0  0  0  0  0  0  0  0  0  0
   63.0191  -10.4409  -70.4006 C   0  0  0  0  0  0  0  0  0  0  0  0
   66.1330   -2.2761  -69.2531 C   0  0  0  0  0  0  0  0  0  0  0  0
   63.7727   -5.1045  -69.3471 C   0  0  0  0  0  0  0  0  0  0  0  0
   59.7677   -3.6652  -73.1485 C   0  0  0  0  0  0  0  0  0  0  0  0
   62.5647   -9.5154  -71.4924 C   0  0  0  0  0  0  0  0  0  0  0  0
   71.8910   -3.1977  -66.3026 C   0  0  0  0  0  0  0  0  0  0  0  0
   61.0858  -10.3335  -68.8535 C   0  0  0  0  0  0  0  0  0  0  0  0
   65.0706   -6.6321  -67.8734 C   0  0  0  0  0  0  0  0  0  0  0  0
   67.2056   -3.3062  -67.3488 C   0  0  0  0  0  0  0  0  0  0  0  0
   69.3414   -2.2510  -66.3043 C   0  0  0  0  0  0  0  0  0  0  0  0
   62.6739   -3.9249  -70.8837 C   0  0  0  0  0  0  0  0  0  0  0  0
   63.9351   -9.4887  -71.1109 C   0  0  0  0  0  0  0  0  0  0  0  0
   60.5656   -9.7129  -67.6878 O   0  0  0  0  0  0  0  0  0  0  0  0
   64.5263   -4.0172  -69.7140 N   0  0  0  0  0  0  0  0  0  0  0  0
   73.2073   -6.3589  -66.5175 O   0  0  0  0  0  0  0  0  0  0  0  0
   72.6237   -5.3632  -64.6132 O   0  0  0  0  0  0  0  0  0  0  0  0
   58.8172   -4.2070  -72.2715 C   0  0  0  0  0  0  0  0  0  0  0  0
   72.4021   -5.7757  -65.7942 C   0  0  0  0  0  0  0  0  0  0  0  0
   66.0244   -5.5762  -67.5880 C   0  0  0  0  0  0  0  0  0  0  0  0
   62.5629   -4.9455  -69.8957 N   0  0  0  0  0  0  0  0  0  0  0  0
   71.0787   -5.4765  -66.5054 C   0  0  0  0  0  0  0  0  0  0  0  0
   63.8875   -3.3105  -70.6853 C   0  0  0  0  0  0  0  0  0  0  0  0
   68.0474   -1.8356  -66.0413 F   0  0  0  0  0  0  0  0  0  0  0  0
   63.4292   -8.7816  -68.7004 C   0  0  0  0  0  0  0  0  0  0  0  0
   70.8396   -4.0996  -66.5294 C   0  0  0  0  0  0  0  0  0  0  0  0
   68.5029   -4.2079  -67.3982 C   0  0  0  0  0  0  0  0  0  0  0  0
   68.0655   -4.7850  -68.6897 C   0  0  0  0  0  0  0  0  0  0  0  0
   70.3766   -1.3723  -66.0246 C   0  0  0  0  0  0  0  0  0  0  0  0
   61.1920   -5.4333  -69.7863 O   0  0  0  0  0  0  0  0  0  0  0  0
   61.4870   -3.9980  -71.5851 C   0  0  0  0  0  0  0  0  0  0  0  0
  1  6  1  0
  1 16  1  0
  1 21  1  0
  2 19  2  0
  2 41  1  0
  3 23  1  0
  3 38  1  0
  3 39  1  0
  4 17  2  0
  4 43  1  0
  5 15  1  0
  5 22  1  0
  6 37  1  0
  7  8  1  0
  7 30  2  0
  8 42  1  0
  8 43  2  0
  9 12  1  0
  9 15  1  0
  9 27  1  0
 10 14  1  0
 10 20  1  0
 10 37  1  0
 11 13  1  0
 11 21  1  0
 12 22  1  0
 12 32  1  0
 12 40  1  0
 13 37  2  0
 14 25  1  0
 16 27  1  0
 16 33  1  0
 17 30  1  0
 18 25  1  0
 19 38  1  0
 20 26  1  0
 21 32  1  0
 22 39  1  0
 23 36  1  0
 23 41  2  0
 24 33  1  0
 24 35  1  0
 24 43  1  0
 27 35  1  0
 28 31  2  0
 29 31  1  0
 31 34  1  0
 33 42  1  0
 34 38  1  0
 39 40  1  0
M  END
>  <ID>  (1) 
conformer_0

$$$$
