
     RDKit          3D

 31 36  0  0  0  0  0  0  0  0999 V2000
   63.3469  -10.6304  -68.4775 C   0  0  0  0  0  0  0  0  0  0  0  0
   61.9437   -8.5270  -71.2041 C   0  0  0  0  0  0  0  0  0  0  0  0
   61.4894   -5.0850  -71.8684 C   0  0  0  0  0  0  0  0  0  0  0  0
   64.2972   -0.9921  -70.7229 C   0  0  0  0  0  0  0  0  0  0  0  0
   62.9386   -3.3968  -70.6986 C   0  0  0  0  0  0  0  0  0  0  0  0
   63.0370   -1.1135  -71.3469 C   0  0  0  0  0  0  0  0  0  0  0  0
   68.3023   -1.8544  -66.5403 C   0  0  0  0  0  0  0  0  0  0  0  0
   62.9945   -5.6338  -68.4114 S   0  0  0  0  0  0  0  0  0  0  0  0
   67.6493   -5.1196  -67.5330 N   0  0  0  0  0  0  0  0  0  0  0  0
   62.3117   -4.7094  -70.7814 C   0  0  0  0  0  0  0  0  0  0  0  0
   67.7342   -3.0045  -67.0174 C   0  0  0  0  0  0  0  0  0  0  0  0
   64.7213   -7.6328  -66.8868 C   0  0  0  0  0  0  0  0  0  0  0  0
   70.3702   -3.0633  -66.2743 C   0  0  0  0  0  0  0  0  0  0  0  0
   64.0383   -8.7582  -67.6102 N   0  0  0  0  0  0  0  0  0  0  0  0
   68.4647   -4.1898  -67.1149 C   0  0  0  0  0  0  0  0  0  0  0  0
   62.9741   -9.6383  -69.3425 C   0  0  0  0  0  0  0  0  0  0  0  0
   64.1561   -3.2236  -70.0459 C   0  0  0  0  0  0  0  0  0  0  0  0
   64.8204   -2.0627  -70.0610 C   0  0  0  0  0  0  0  0  0  0  0  0
   62.5296   -5.7617  -69.9899 C   0  0  0  0  0  0  0  0  0  0  0  0
   69.8008   -4.2377  -66.7673 C   0  0  0  0  0  0  0  0  0  0  0  0
   65.1647   -5.2076  -67.1013 C   0  0  0  0  0  0  0  0  0  0  0  0
   63.4132   -8.6008  -68.7263 C   0  0  0  0  0  0  0  0  0  0  0  0
   61.3327   -6.4394  -71.9557 C   0  0  0  0  0  0  0  0  0  0  0  0
   62.3734   -2.2932  -71.3264 C   0  0  0  0  0  0  0  0  0  0  0  0
   69.6398   -1.9029  -66.1470 C   0  0  0  0  0  0  0  0  0  0  0  0
   64.0172  -10.0727  -67.3944 N   0  0  0  0  0  0  0  0  0  0  0  0
   62.3061   -9.6753  -70.6103 C   0  0  0  0  0  0  0  0  0  0  0  0
   66.5054   -3.2354  -67.4195 N   0  0  0  0  0  0  0  0  0  0  0  0
   66.4096   -4.5799  -67.4839 C   0  0  0  0  0  0  0  0  0  0  0  0
   61.9892   -7.1504  -70.9506 C   0  0  0  0  0  0  0  0  0  0  0  0
   64.4125   -6.3317  -67.5485 C   0  0  0  0  0  0  0  0  0  0  0  0
  1 16  1  0
  1 26  1  0
  2 27  2  0
  2 30  1  0
  3 10  1  0
  3 23  1  0
  4  6  1  0
  4 18  1  0
  5 10  1  0
  5 17  1  0
  5 24  1  0
  6 24  2  0
  7 11  2  0
  7 25  1  0
  8 19  1  0
  8 31  1  0
  9 15  1  0
  9 29  2  0
 10 19  1  0
 11 15  1  0
 11 28  1  0
 12 14  1  0
 12 31  1  0
 13 20  1  0
 13 25  2  0
 14 22  1  0
 14 26  1  0
 15 20  2  0
 16 22  2  0
 16 27  1  0
 17 18  2  0
 19 30  1  0
 21 29  1  0
 21 31  1  0
 23 30  1  0
 28 29  1  0
M  END
>  <ID>  (1) 
conformer_0

$$$$
