
     RDKit          3D

 30 35  0  0  0  0  0  0  0  0999 V2000
   70.9933   -2.1204  -65.2788 C   0  0  0  0  0  0  0  0  0  0  0  0
   62.8997   -9.7872  -67.8967 C   0  0  0  0  0  0  0  0  0  0  0  0
   67.1403   -2.6400  -67.6094 C   0  0  0  0  0  0  0  0  0  0  0  0
   64.9995   -6.7242  -67.7211 C   0  0  0  0  0  0  0  0  0  0  0  0
   62.6549   -8.7041  -70.3975 C   0  0  0  0  0  0  0  0  0  0  0  0
   64.4568   -5.9048  -68.7931 C   0  0  0  0  0  0  0  0  0  0  0  0
   69.1114   -3.9532  -67.0932 C   0  0  0  0  0  0  0  0  0  0  0  0
   64.5882   -7.9870  -67.4352 N   0  0  0  0  0  0  0  0  0  0  0  0
   61.9872   -9.8388  -70.0924 N   0  0  0  0  0  0  0  0  0  0  0  0
   61.2869   -5.9866  -70.4405 N   0  0  0  0  0  0  0  0  0  0  0  0
   60.5821   -5.0670  -71.0473 C   0  0  0  0  0  0  0  0  0  0  0  0
   63.5941   -8.6287  -68.2173 C   0  0  0  0  0  0  0  0  0  0  0  0
   68.8549   -1.6616  -66.2969 C   0  0  0  0  0  0  0  0  0  0  0  0
   66.6167   -3.6644  -68.3689 C   0  0  0  0  0  0  0  0  0  0  0  0
   60.8323  -10.8735  -68.3343 O   0  0  0  0  0  0  0  0  0  0  0  0
   67.3546   -4.8443  -68.4470 C   0  0  0  0  0  0  0  0  0  0  0  0
   63.4289   -6.5969  -69.4482 C   0  0  0  0  0  0  0  0  0  0  0  0
   62.3997   -3.5365  -70.8615 C   0  0  0  0  0  0  0  0  0  0  0  0
   64.4468   -4.4375  -69.4098 C   0  0  0  0  0  0  0  0  0  0  0  0
   68.3611   -2.7527  -66.9841 C   0  0  0  0  0  0  0  0  0  0  0  0
   61.9611  -10.1784  -68.7761 N   0  0  0  0  0  0  0  0  0  0  0  0
   65.3360   -3.4020  -69.1114 C   0  0  0  0  0  0  0  0  0  0  0  0
   63.2404   -7.9646  -69.4030 C   0  0  0  0  0  0  0  0  0  0  0  0
   70.3808   -4.0837  -66.5439 C   0  0  0  0  0  0  0  0  0  0  0  0
   61.1191   -3.8555  -71.3103 N   0  0  0  0  0  0  0  0  0  0  0  0
   62.5237   -5.7046  -70.0675 C   0  0  0  0  0  0  0  0  0  0  0  0
   71.1418   -3.4126  -65.7847 C   0  0  0  0  0  0  0  0  0  0  0  0
   69.8874   -1.3459  -65.5564 C   0  0  0  0  0  0  0  0  0  0  0  0
   68.5510   -5.0239  -67.8191 C   0  0  0  0  0  0  0  0  0  0  0  0
   63.1273   -4.4261  -70.1620 C   0  0  0  0  0  0  0  0  0  0  0  0
  1 27  1  0
  1 28  1  0
  2 12  2  0
  2 21  1  0
  3 14  1  0
  3 20  2  0
  4  6  1  0
  4  8  2  0
  5  9  2  0
  5 23  1  0
  6 17  1  0
  6 19  1  0
  7 20  1  0
  7 24  1  0
  7 29  1  0
  8 12  1  0
  9 21  1  0
 10 11  1  0
 10 26  2  0
 11 25  2  0
 12 23  1  0
 13 20  1  0
 13 28  2  0
 14 16  1  0
 14 22  1  0
 15 21  1  0
 16 29  2  0
 17 23  1  0
 17 26  1  0
 18 25  1  0
 18 30  2  0
 19 22  2  3
 19 30  1  0
 24 27  2  0
 26 30  1  0
M  END
>  <ID>  (1) 
conformer_0

$$$$
