
     RDKit          3D

 24 27  0  0  0  0  0  0  0  0999 V2000
   67.5155   -3.0494  -67.3703 C   0  0  0  0  0  0  0  0  0  0  0  0
   65.3993   -7.0357  -66.8784 C   0  0  0  0  0  0  0  0  0  0  0  0
   63.6193   -9.5403  -68.4209 C   0  0  0  0  0  0  0  0  0  0  0  0
   64.0354   -6.2740  -68.9652 C   0  0  0  0  0  0  0  0  0  0  0  0
   65.9695   -5.0506  -68.0477 C   0  0  0  0  0  0  0  0  0  0  0  0
   66.8563   -5.8778  -68.9709 C   0  0  0  0  0  0  0  0  0  0  0  0
   68.7838   -3.5813  -67.4662 C   0  0  0  0  0  0  0  0  0  0  0  0
   65.5079   -2.9095  -68.8722 C   0  0  0  0  0  0  0  0  0  0  0  0
   62.8041   -9.4916  -69.7025 C   0  0  0  0  0  0  0  0  0  0  0  0
   62.6733   -8.0930  -70.1991 C   0  0  0  0  0  0  0  0  0  0  0  0
   69.8491   -2.9935  -66.8067 C   0  0  0  0  0  0  0  0  0  0  0  0
   64.5396   -4.9916  -68.6149 C   0  0  0  0  0  0  0  0  0  0  0  0
   61.5738  -10.3532  -69.5776 C   0  0  0  0  0  0  0  0  0  0  0  0
   65.8807   -5.6963  -66.6611 C   0  0  0  0  0  0  0  0  0  0  0  0
   68.4179   -1.3462  -65.9304 C   0  0  0  0  0  0  0  0  0  0  0  0
   67.3724   -1.9104  -66.6326 C   0  0  0  0  0  0  0  0  0  0  0  0
   66.3595   -3.6074  -68.0207 C   0  0  0  0  0  0  0  0  0  0  0  0
   62.8373   -6.6522  -69.7086 C   0  0  0  0  0  0  0  0  0  0  0  0
   60.5370   -9.7006  -68.8623 O   0  0  0  0  0  0  0  0  0  0  0  0
   63.4674   -8.2505  -67.6521 C   0  0  0  0  0  0  0  0  0  0  0  0
   64.5680   -7.3394  -68.0972 C   0  0  0  0  0  0  0  0  0  0  0  0
   61.8826   -5.6769  -70.3942 C   0  0  0  0  0  0  0  0  0  0  0  0
   69.6665   -1.8364  -66.0655 C   0  0  0  0  0  0  0  0  0  0  0  0
   64.4355   -3.7772  -69.2856 C   0  0  0  0  0  0  0  0  0  0  0  0
  1  7  2  0
  1 16  1  0
  1 17  1  0
  2 14  1  0
  2 21  1  0
  3  9  1  0
  3 20  1  0
  4 12  1  0
  4 18  1  0
  4 21  1  0
  5  6  1  0
  5 12  1  0
  5 14  1  0
  5 17  1  0
  7 11  1  0
  8 17  1  0
  8 24  1  0
  9 10  1  0
  9 13  1  0
 10 18  1  0
 11 23  2  0
 12 24  1  0
 13 19  1  0
 15 16  2  0
 15 23  1  0
 18 22  1  0
 20 21  1  0
M  END
>  <ID>  (1) 
conformer_0

$$$$
