
     RDKit          3D

 31 34  0  0  0  0  0  0  0  0999 V2000
   70.1351   -2.8431  -67.2939 C   0  0  0  0  0  0  0  0  0  0  0  0
   64.4851   -4.1544  -69.6118 C   0  0  0  0  0  0  0  0  0  0  0  0
   68.7290   -2.0097  -64.9792 C   0  0  0  0  0  0  0  0  0  0  0  0
   65.2237   -6.8965  -67.3292 C   0  0  0  0  0  0  0  0  0  0  0  0
   68.1220   -3.0966  -68.4369 O   0  0  0  0  0  0  0  0  0  0  0  0
   66.0415   -2.4119  -69.0724 C   0  0  0  0  0  0  0  0  0  0  0  0
   66.5808   -6.7476  -67.1046 N   0  0  0  0  0  0  0  0  0  0  0  0
   62.5272   -6.9103  -71.0671 N   0  0  0  0  0  0  0  0  0  0  0  0
   67.1419   -5.6424  -67.6020 C   0  0  0  0  0  0  0  0  0  0  0  0
   66.3871   -4.6795  -68.2808 C   0  0  0  0  0  0  0  0  0  0  0  0
   60.5904   -9.6806  -67.6827 O   0  0  0  0  0  0  0  0  0  0  0  0
   63.6621   -4.6085  -70.5760 O   0  0  0  0  0  0  0  0  0  0  0  0
   64.8634   -2.8130  -69.6421 C   0  0  0  0  0  0  0  0  0  0  0  0
   70.0972   -2.0950  -64.9906 C   0  0  0  0  0  0  0  0  0  0  0  0
   63.6102  -10.5398  -70.5143 C   0  0  0  0  0  0  0  0  0  0  0  0
   68.0510   -2.2713  -66.1799 C   0  0  0  0  0  0  0  0  0  0  0  0
   70.7771   -2.5544  -66.0987 C   0  0  0  0  0  0  0  0  0  0  0  0
   65.1130   -5.0312  -68.7011 C   0  0  0  0  0  0  0  0  0  0  0  0
   68.7374   -2.7005  -67.2980 C   0  0  0  0  0  0  0  0  0  0  0  0
   63.5464   -8.7337  -67.1913 O   0  0  0  0  0  0  0  0  0  0  0  0
   63.4436   -8.5371  -68.5879 C   0  0  0  0  0  0  0  0  0  0  0  0
   60.8279  -10.9009  -69.4352 O   0  0  0  0  0  0  0  0  0  0  0  0
   62.2967   -4.5887  -70.7056 C   0  0  0  0  0  0  0  0  0  0  0  0
   62.3443   -8.1675  -71.7880 C   0  0  0  0  0  0  0  0  0  0  0  0
   62.0194   -5.7625  -71.7069 C   0  0  0  0  0  0  0  0  0  0  0  0
   62.4954   -9.3772  -70.8296 C   0  0  0  0  0  0  0  0  0  0  0  0
   62.1463   -8.8117  -69.3704 C   0  0  0  0  0  0  0  0  0  0  0  0
   66.8490   -3.3831  -68.5376 C   0  0  0  0  0  0  0  0  0  0  0  0
   64.5398   -7.9243  -66.4302 C   0  0  0  0  0  0  0  0  0  0  0  0
   64.5838   -6.1442  -68.1931 N   0  0  0  0  0  0  0  0  0  0  0  0
   61.2225   -9.9030  -68.7317 C   0  0  0  0  0  0  0  0  0  0  0  0
  1 17  2  0
  1 19  1  0
  2 12  1  0
  2 13  1  0
  2 18  1  0
  3 14  2  0
  3 16  1  0
  4  7  2  0
  4 29  1  0
  4 30  1  0
  5 19  1  0
  5 28  1  0
  6 13  2  0
  6 28  1  0
  7  9  1  0
  8 24  1  0
  8 25  1  0
  9 10  2  0
 10 18  1  0
 10 28  1  0
 11 31  2  0
 12 23  1  0
 14 17  1  0
 15 26  1  0
 16 19  2  0
 18 30  2  0
 20 21  1  0
 20 29  1  0
 21 27  1  0
 22 31  1  0
 23 25  1  0
 24 26  1  0
 26 27  1  0
 27 31  1  0
M  END
>  <ID>  (1) 
conformer_0

$$$$
