
     RDKit          3D

 33 38  0  0  0  0  0  0  0  0999 V2000
   63.7262   -8.8713  -68.3016 C   0  0  0  0  0  0  0  0  0  0  0  0
   66.6410   -1.6992  -68.7426 C   0  0  0  0  0  0  0  0  0  0  0  0
   71.7872   -3.7939  -66.3853 C   0  0  0  0  0  0  0  0  0  0  0  0
   63.5785   -5.3560  -69.4263 C   0  0  0  0  0  0  0  0  0  0  0  0
   62.7646   -9.7073  -70.4330 C   0  0  0  0  0  0  0  0  0  0  0  0
   70.4964   -3.0805  -66.3674 C   0  0  0  0  0  0  0  0  0  0  0  0
   68.7118   -1.5838  -66.0086 C   0  0  0  0  0  0  0  0  0  0  0  0
   63.1430   -7.2613  -69.8752 C   0  0  0  0  0  0  0  0  0  0  0  0
   64.0560   -4.0717  -69.9602 C   0  0  0  0  0  0  0  0  0  0  0  0
   69.4948   -3.3299  -67.3799 C   0  0  0  0  0  0  0  0  0  0  0  0
   71.7271   -5.0665  -66.3733 O   0  0  0  0  0  0  0  0  0  0  0  0
   65.5843   -5.8804  -68.3084 C   0  0  0  0  0  0  0  0  0  0  0  0
   61.5342   -5.2290  -70.6648 O   0  0  0  0  0  0  0  0  0  0  0  0
   63.0822   -9.9805  -68.9879 C   0  0  0  0  0  0  0  0  0  0  0  0
   68.5531   -2.2225  -67.3292 C   0  0  0  0  0  0  0  0  0  0  0  0
   70.1630   -1.8859  -65.5895 C   0  0  0  0  0  0  0  0  0  0  0  0
   62.9757   -6.7731  -66.9832 C   0  0  0  0  0  0  0  0  0  0  0  0
   62.1991   -8.3181  -70.5175 C   0  0  0  0  0  0  0  0  0  0  0  0
   65.2631   -7.7601  -66.9024 C   0  0  0  0  0  0  0  0  0  0  0  0
   65.8628   -4.4869  -68.4310 C   0  0  0  0  0  0  0  0  0  0  0  0
   67.2198   -2.5598  -67.7784 C   0  0  0  0  0  0  0  0  0  0  0  0
   66.9047   -3.9632  -67.5519 C   0  0  0  0  0  0  0  0  0  0  0  0
   65.5046   -2.1701  -69.4522 C   0  0  0  0  0  0  0  0  0  0  0  0
   65.1783   -3.5419  -69.2366 C   0  0  0  0  0  0  0  0  0  0  0  0
   62.5145   -5.9634  -70.2149 C   0  0  0  0  0  0  0  0  0  0  0  0
   64.8004   -8.1529  -65.6419 O   0  0  0  0  0  0  0  0  0  0  0  0
   62.4031  -10.8341  -68.3736 O   0  0  0  0  0  0  0  0  0  0  0  0
   60.8938   -8.0194  -70.3903 O   0  0  0  0  0  0  0  0  0  0  0  0
   63.9724   -7.4873  -67.7966 C   0  0  0  0  0  0  0  0  0  0  0  0
   64.8391   -1.5101  -70.2592 O   0  0  0  0  0  0  0  0  0  0  0  0
   72.8497   -3.0843  -66.5045 O   0  0  0  0  0  0  0  0  0  0  0  0
   64.3838   -6.5373  -68.9515 C   0  0  0  0  0  0  0  0  0  0  0  0
   66.0954   -6.5643  -67.0522 C   0  0  0  0  0  0  0  0  0  0  0  0
  1 14  1  0
  1 29  1  0
  2 21  2  0
  2 23  1  0
  3  6  1  0
  3 11  2  0
  3 31  1  0
  4  9  1  0
  4 25  1  0
  4 32  1  0
  5 14  1  0
  5 18  1  0
  6 10  1  0
  6 16  1  0
  7 15  1  0
  7 16  1  0
  8 18  1  0
  8 25  2  0
  8 32  1  0
  9 24  1  0
 10 15  1  0
 12 20  1  0
 12 32  1  0
 12 33  1  0
 13 25  1  0
 14 27  2  0
 15 21  1  0
 17 29  1  0
 18 28  1  0
 19 26  1  0
 19 29  1  0
 19 33  1  0
 20 22  1  0
 20 24  2  0
 21 22  1  0
 23 24  1  0
 23 30  2  0
 29 32  1  0
M  END
>  <ID>  (1) 
conformer_0

$$$$
