
     RDKit          3D

 35 40  0  0  0  0  0  0  0  0999 V2000
   64.3962   -7.9067  -67.5653 C   0  0  0  0  0  0  0  0  0  0  0  0
   60.5737   -4.4770  -71.9828 C   0  0  0  0  0  0  0  0  0  0  0  0
   62.3896   -7.8907  -71.8979 O   0  0  0  0  0  1  0  0  0  0  0  0
   64.1714   -6.0200  -69.0761 C   0  0  0  0  0  0  0  0  0  0  0  0
   67.2739   -2.5995  -67.9007 C   0  0  0  0  0  0  0  0  0  0  0  0
   63.7987   -7.3480  -68.6977 C   0  0  0  0  0  0  0  0  0  0  0  0
   67.0249   -3.9044  -68.2145 C   0  0  0  0  0  0  0  0  0  0  0  0
   64.8532   -3.3773  -69.5574 C   0  0  0  0  0  0  0  0  0  0  0  0
   62.5391   -3.3526  -70.8789 C   0  0  0  0  0  0  0  0  0  0  0  0
   64.1627   -9.2057  -67.2278 N   0  0  0  0  0  0  0  0  0  0  0  0
   68.2984   -2.1093  -67.2333 C   0  0  0  0  0  0  0  0  0  0  0  0
   72.0145   -3.4349  -65.7680 O   0  0  0  0  0  0  0  0  0  0  0  0
   65.3234   -5.5061  -68.6515 C   0  0  0  0  0  0  0  0  0  0  0  0
   62.3478   -2.0952  -71.2551 C   0  0  0  0  0  0  0  0  0  0  0  0
   71.2510   -4.2479  -66.2775 C   0  0  0  0  0  0  0  0  0  0  0  0
   61.9633   -7.3833  -70.6859 S   0  0  0  0  0  4  0  0  0  0  0  0
   63.3955   -9.9489  -68.0718 C   0  0  0  0  0  0  0  0  0  0  0  0
   62.2109   -5.7461  -70.6306 C   0  0  0  0  0  0  0  0  0  0  0  0
   59.9760   -3.4762  -72.6627 C   0  0  0  0  0  0  0  0  0  0  0  0
   69.8633   -3.9857  -66.8056 C   0  0  0  0  0  0  0  0  0  0  0  0
   62.8821   -8.0664  -69.4614 C   0  0  0  0  0  0  0  0  0  0  0  0
   70.1657   -1.6245  -65.7971 Cl  0  0  0  0  0  0  0  0  0  0  0  0
   67.8876   -4.9583  -67.9217 C   0  0  0  0  0  0  0  0  0  0  0  0
   61.4125   -1.5535  -72.0740 C   0  0  0  0  0  0  0  0  0  0  0  0
   73.0815   -5.7323  -65.9717 C   0  0  0  0  0  0  0  0  0  0  0  0
   60.3658   -2.1669  -72.7109 C   0  0  0  0  0  0  0  0  0  0  0  0
   69.3888   -2.6752  -66.6764 C   0  0  0  0  0  0  0  0  0  0  0  0
   63.6620   -3.8663  -70.0981 C   0  0  0  0  0  0  0  0  0  0  0  0
   60.6455   -7.6297  -70.4617 O   0  0  0  0  0  1  0  0  0  0  0  0
   71.7234   -5.5170  -66.4458 O   0  0  0  0  0  0  0  0  0  0  0  0
   62.7657   -9.4400  -69.1871 C   0  0  0  0  0  0  0  0  0  0  0  0
   61.6669   -4.4996  -71.2251 C   0  0  0  0  0  0  0  0  0  0  0  0
   63.3796   -5.2624  -69.9086 C   0  0  0  0  0  0  0  0  0  0  0  0
   69.1098   -4.9876  -67.3822 C   0  0  0  0  0  0  0  0  0  0  0  0
   65.7455   -4.2147  -68.8407 C   0  0  0  0  0  0  0  0  0  0  0  0
  1  6  2  0
  1 10  1  0
  2 19  1  0
  2 32  2  0
  3 16  1  0
  4  6  1  0
  4 13  2  0
  4 33  1  0
  5  7  1  0
  5 11  2  0
  6 21  1  0
  7 23  1  0
  7 35  1  0
  8 28  1  0
  8 35  2  0
  9 14  2  0
  9 28  1  0
  9 32  1  0
 10 17  2  0
 11 27  1  0
 12 15  2  0
 13 35  1  0
 14 24  1  0
 15 20  1  0
 15 30  1  0
 16 18  1  0
 16 21  1  0
 16 29  1  0
 17 31  1  0
 18 32  1  0
 18 33  1  0
 19 26  2  0
 20 27  2  0
 20 34  1  0
 21 31  2  0
 22 27  1  0
 23 34  2  0
 24 26  1  0
 25 30  1  0
 28 33  2  0
M  END
>  <ID>  (1) 
conformer_0

$$$$
