
     RDKit          3D

 34 40  0  0  0  0  0  0  0  0999 V2000
   70.3232   -4.3179  -66.6624 C   0  0  0  0  0  0  0  0  0  0  0  0
   69.3465   -3.4227  -67.0300 C   0  0  0  0  0  0  0  0  0  0  0  0
   71.5544   -3.7573  -66.0840 C   0  0  0  0  0  0  0  0  0  0  0  0
   71.7863   -2.3260  -65.9014 C   0  0  0  0  0  0  0  0  0  0  0  0
   69.9440   -1.2268  -67.8050 O   0  0  0  0  0  0  0  0  0  0  0  0
   69.5142   -1.9827  -66.6739 C   0  0  0  0  0  0  0  0  0  0  0  0
   66.6271   -6.9484  -67.1323 C   0  0  0  0  0  0  0  0  0  0  0  0
   63.5141   -8.1420  -68.0458 C   0  0  0  0  0  0  0  0  0  0  0  0
   64.1567   -5.2601  -69.5368 C   0  0  0  0  0  0  0  0  0  0  0  0
   65.0958   -5.3093  -68.4546 C   0  0  0  0  0  0  0  0  0  0  0  0
   67.6653   -5.9265  -67.0054 C   0  0  0  0  0  0  0  0  0  0  0  0
   67.4336   -4.7329  -67.9115 C   0  0  0  0  0  0  0  0  0  0  0  0
   64.5856   -2.8935  -69.7745 C   0  0  0  0  0  0  0  0  0  0  0  0
   65.8409   -3.0859  -69.1145 C   0  0  0  0  0  0  0  0  0  0  0  0
   61.4950  -11.0002  -69.1492 C   0  0  0  0  0  0  0  0  0  0  0  0
   62.4246   -9.8123  -69.3548 C   0  0  0  0  0  0  0  0  0  0  0  0
   64.1258   -7.2404  -67.0545 C   0  0  0  0  0  0  0  0  0  0  0  0
   62.9900   -6.1424  -69.4548 C   0  0  0  0  0  0  0  0  0  0  0  0
   63.2740   -7.5885  -69.3887 C   0  0  0  0  0  0  0  0  0  0  0  0
   65.2920   -6.4803  -67.6030 C   0  0  0  0  0  0  0  0  0  0  0  0
   73.8669   -4.1555  -66.0024 O   0  0  0  0  0  0  0  0  0  0  0  0
   72.5128   -5.8164  -66.6767 O   0  0  0  0  0  0  0  0  0  0  0  0
   62.0868   -8.4760  -69.9225 C   0  0  0  0  0  0  0  0  0  0  0  0
   62.9304   -9.4208  -67.9968 N   0  0  0  0  0  0  0  0  0  0  0  0
   61.1406   -7.6757  -70.5298 O   0  0  0  0  0  0  0  0  0  0  0  0
   64.1951   -4.1582  -70.4440 C   0  0  0  0  0  0  0  0  0  0  0  0
   72.7241   -4.6477  -66.2437 C   0  0  0  0  0  0  0  0  0  0  0  0
   66.4334   -1.9343  -68.5201 C   0  0  0  0  0  0  0  0  0  0  0  0
   67.4706   -2.3034  -67.6909 C   0  0  0  0  0  0  0  0  0  0  0  0
   60.2775  -10.5509  -68.7098 O   0  0  0  0  0  0  0  0  0  0  0  0
   70.4747   -1.7075  -65.5512 C   0  0  0  0  0  0  0  0  0  0  0  0
   67.9869   -1.5777  -66.5311 C   0  0  0  0  0  0  0  0  0  0  0  0
   68.2411   -3.5232  -67.9037 C   0  0  0  0  0  0  0  0  0  0  0  0
   66.1973   -4.3865  -68.6371 C   0  0  0  0  0  0  0  0  0  0  0  0
  1  2  2  0
  1  3  1  0
  2  6  1  0
  2 33  1  0
  3  4  1  0
  3 27  1  0
  4 31  1  0
  5  6  1  0
  6 31  1  0
  6 32  1  0
  7 11  1  0
  7 20  1  0
  8 17  1  0
  8 19  1  0
  8 24  1  0
  9 10  1  0
  9 18  1  0
  9 26  1  0
 10 20  1  0
 10 34  1  0
 11 12  1  0
 12 33  1  0
 12 34  1  0
 13 14  1  0
 13 26  1  0
 14 28  1  0
 14 34  1  0
 15 16  1  0
 15 30  1  0
 16 23  1  0
 16 24  1  0
 17 20  1  0
 18 19  1  0
 19 23  1  0
 21 27  2  0
 22 27  1  0
 23 25  1  0
 28 29  1  0
 29 32  1  0
 29 33  1  0
M  END
>  <ID>  (1) 
conformer_0

$$$$
