
     RDKit          3D

 43 48  0  0  0  0  0  0  0  0999 V2000
   67.6625   -3.8394  -67.2188 C   0  0  0  0  0  0  0  0  0  0  0  0
   67.6212   -1.4093  -67.5254 C   0  0  0  0  0  0  0  0  0  0  0  0
   67.5680   -6.0229  -68.2881 O   0  0  0  0  0  0  0  0  0  0  0  0
   64.2253   -8.2747  -67.2716 C   0  0  0  0  0  0  0  0  0  0  0  0
   65.4495   -7.2930  -67.3402 C   0  0  0  0  0  0  0  0  0  0  0  0
   61.8487   -4.4708  -71.2234 C   0  0  0  0  0  0  0  0  0  0  0  0
   62.8176  -10.5789  -67.7205 O   0  0  0  0  0  0  0  0  0  0  0  0
   59.0972   -5.1355  -70.9707 F   0  0  0  0  0  0  0  0  0  0  0  0
   65.5675   -4.4997  -68.2906 C   0  0  0  0  0  0  0  0  0  0  0  0
   67.2073   -2.6594  -68.0051 C   0  0  0  0  0  0  0  0  0  0  0  0
   70.0205   -4.8702  -66.7076 C   0  0  0  0  0  0  0  0  0  0  0  0
   64.2347   -9.3654  -69.3809 C   0  0  0  0  0  0  0  0  0  0  0  0
   60.8183   -9.5901  -69.2232 O   0  0  0  0  0  0  0  0  0  0  0  0
   64.8345   -5.4583  -69.0458 C   0  0  0  0  0  0  0  0  0  0  0  0
   64.9504   -3.4487  -67.5280 C   0  0  0  0  0  0  0  0  0  0  0  0
   65.8984   -3.0060  -68.5106 C   0  0  0  0  0  0  0  0  0  0  0  0
   58.8135   -1.5577  -71.2103 C   0  0  0  0  0  0  0  0  0  0  0  0
   60.1560   -1.1793  -71.2887 C   0  0  0  0  0  0  0  0  0  0  0  0
   63.8251   -5.6198  -66.7564 C   0  0  0  0  0  0  0  0  0  0  0  0
   63.5208   -5.5258  -69.7437 C   0  0  0  0  0  0  0  0  0  0  0  0
   62.6263   -6.1780  -66.6856 O   0  0  0  0  0  0  0  0  0  0  0  0
   70.5944   -2.4071  -65.5542 C   0  0  0  0  0  0  0  0  0  0  0  0
   63.7047   -8.0796  -68.7467 C   0  0  0  0  0  0  0  0  0  0  0  0
   60.8253   -3.4325  -71.2165 C   0  0  0  0  0  0  0  0  0  0  0  0
   71.7398   -3.0181  -66.2057 C   0  0  0  0  0  0  0  0  0  0  0  0
   72.2119   -4.1047  -65.6745 C   0  0  0  0  0  0  0  0  0  0  0  0
   63.1009  -10.3216  -69.0207 C   0  0  0  0  0  0  0  0  0  0  0  0
   71.3913   -4.3728  -66.6520 C   0  0  0  0  0  0  0  0  0  0  0  0
   63.1027   -4.3043  -70.5359 C   0  0  0  0  0  0  0  0  0  0  0  0
   58.4525   -2.8740  -71.1188 C   0  0  0  0  0  0  0  0  0  0  0  0
   61.5989   -5.6240  -71.8604 O   0  0  0  0  0  0  0  0  0  0  0  0
   66.9137   -4.9760  -67.7584 C   0  0  0  0  0  0  0  0  0  0  0  0
   62.5948   -9.4385  -71.2826 C   0  0  0  0  0  0  0  0  0  0  0  0
   61.9425   -9.9309  -69.9829 C   0  0  0  0  0  0  0  0  0  0  0  0
   61.1251   -2.1116  -71.3154 C   0  0  0  0  0  0  0  0  0  0  0  0
   69.4710   -2.5300  -66.4583 C   0  0  0  0  0  0  0  0  0  0  0  0
   64.1738   -9.2517  -70.9324 S   0  0  0  0  0  0  0  0  0  0  0  0
   68.4336   -1.5148  -66.2925 C   0  0  0  0  0  0  0  0  0  0  0  0
   59.4695   -3.8033  -71.1221 C   0  0  0  0  0  0  0  0  0  0  0  0
   69.0521   -3.8261  -66.9507 C   0  0  0  0  0  0  0  0  0  0  0  0
   64.2514   -3.2978  -70.3024 C   0  0  0  0  0  0  0  0  0  0  0  0
   65.3171   -2.4451  -69.6965 C   0  0  0  0  0  0  0  0  0  0  0  0
   64.8478   -5.9687  -67.7562 C   0  0  0  0  0  0  0  0  0  0  0  0
  1 10  1  0
  1 32  1  0
  1 40  1  0
  2 10  1  0
  2 38  1  0
  3 32  1  0
  4  5  1  0
  4 23  1  0
  5 43  1  0
  6 24  1  0
  6 29  1  0
  6 31  1  0
  7 27  1  0
  8 39  1  0
  9 14  1  0
  9 15  1  0
  9 32  1  0
 10 16  1  0
 11 28  1  0
 11 40  1  0
 12 23  1  0
 12 27  1  0
 12 37  1  0
 13 34  1  0
 14 20  1  0
 14 43  1  0
 15 16  1  0
 16 42  1  0
 17 18  2  0
 17 30  1  0
 18 35  1  0
 19 21  1  0
 19 43  1  0
 20 29  2  0
 22 25  1  0
 22 36  1  0
 24 35  2  0
 24 39  1  0
 25 26  1  0
 26 28  1  0
 27 34  1  0
 29 41  1  0
 30 39  2  0
 33 34  1  0
 33 37  1  0
 36 38  1  0
 36 40  1  0
 41 42  1  0
M  END
>  <ID>  (1) 
conformer_0

$$$$
