
     RDKit          3D

 34 38  0  0  0  0  0  0  0  0999 V2000
   65.1142   -5.4512  -68.9656 C   0  0  0  0  0  0  0  0  0  0  0  0
   65.0101   -0.7706  -70.3134 C   0  0  0  0  0  0  0  0  0  0  0  0
   62.8316   -1.2788  -71.1858 C   0  0  0  0  0  0  0  0  0  0  0  0
   66.7830   -5.9160  -67.4163 C   0  0  0  0  0  0  0  0  0  0  0  0
   68.6392   -4.1936  -67.2242 C   0  0  0  0  0  0  0  0  0  0  0  0
   67.4284   -4.7351  -67.7930 C   0  0  0  0  0  0  0  0  0  0  0  0
   63.8733   -0.4658  -70.9665 C   0  0  0  0  0  0  0  0  0  0  0  0
   60.7470   -6.5756  -70.4407 O   0  0  0  0  0  0  0  0  0  0  0  0
   68.6126   -2.8569  -66.8197 C   0  0  0  0  0  0  0  0  0  0  0  0
   62.9153  -10.5091  -69.9163 C   0  0  0  0  0  0  0  0  0  0  0  0
   63.3610   -7.2992  -67.2052 C   0  0  0  0  0  0  0  0  0  0  0  0
   70.8985   -3.0066  -66.0762 C   0  0  0  0  0  0  0  0  0  0  0  0
   73.2124   -4.3520  -65.8477 C   0  0  0  0  0  0  0  0  0  0  0  0
   64.7608   -3.0811  -69.7717 C   0  0  0  0  0  0  0  0  0  0  0  0
   62.6303   -2.5270  -70.8746 C   0  0  0  0  0  0  0  0  0  0  0  0
   63.0949   -8.1935  -69.4172 C   0  0  0  0  0  0  0  0  0  0  0  0
   63.5224   -3.2932  -70.2558 C   0  0  0  0  0  0  0  0  0  0  0  0
   62.1021   -6.3463  -70.8240 C   0  0  0  0  0  0  0  0  0  0  0  0
   66.6681   -3.7642  -68.4695 C   0  0  0  0  0  0  0  0  0  0  0  0
   63.3749   -8.4932  -68.1289 C   0  0  0  0  0  0  0  0  0  0  0  0
   65.3891   -1.8659  -69.7785 C   0  0  0  0  0  0  0  0  0  0  0  0
   70.9600   -4.3228  -66.5441 C   0  0  0  0  0  0  0  0  0  0  0  0
   72.1095   -4.9874  -66.5325 O   0  0  0  0  0  0  0  0  0  0  0  0
   69.7836   -4.9244  -67.0917 C   0  0  0  0  0  0  0  0  0  0  0  0
   65.5540   -4.1428  -69.1722 C   0  0  0  0  0  0  0  0  0  0  0  0
   63.7903    0.7462  -71.4104 F   0  0  0  0  0  0  0  0  0  0  0  0
   63.5725   -9.7800  -67.7239 C   0  0  0  0  0  0  0  0  0  0  0  0
   65.5199   -6.0334  -67.8166 N   0  0  0  0  0  0  0  0  0  0  0  0
   69.7217   -2.2834  -66.2027 C   0  0  0  0  0  0  0  0  0  0  0  0
   63.0647   -6.6757  -69.6234 C   0  0  0  0  0  0  0  0  0  0  0  0
   64.4657   -6.1871  -70.0495 C   0  0  0  0  0  0  0  0  0  0  0  0
   62.9169   -9.1898  -70.3219 C   0  0  0  0  0  0  0  0  0  0  0  0
   62.8511   -6.1395  -68.2000 C   0  0  0  0  0  0  0  0  0  0  0  0
   63.2874  -10.7942  -68.6345 C   0  0  0  0  0  0  0  0  0  0  0  0
  1 25  1  0
  1 28  1  0
  1 31  1  0
  2  7  1  0
  2 21  2  0
  3  7  2  0
  3 15  1  0
  4  6  2  0
  4 28  1  0
  5  6  1  0
  5  9  2  0
  5 24  1  0
  6 19  1  0
  7 26  1  0
  8 18  1  0
  9 29  1  0
 10 32  2  0
 10 34  1  0
 11 20  1  0
 11 33  1  0
 12 22  1  0
 12 29  2  0
 13 23  1  0
 14 17  1  0
 14 21  1  0
 14 25  2  3
 15 17  2  0
 16 20  2  0
 16 30  1  0
 16 32  1  0
 18 30  1  0
 19 25  1  0
 20 27  1  0
 22 23  1  0
 22 24  2  0
 27 34  2  0
 30 31  1  0
 30 33  1  0
M  END
>  <ID>  (1) 
conformer_0

$$$$
