
     RDKit          3D

 34 38  0  0  0  0  0  0  0  0999 V2000
   63.2387   -6.1303  -69.6335 C   0  0  0  0  0  0  0  0  0  0  0  0
   61.4125   -7.3352  -70.5485 C   0  0  0  0  0  0  0  0  0  0  0  0
   64.1538   -9.4773  -67.3689 C   0  0  0  0  0  0  0  0  0  0  0  0
   68.9674   -3.5606  -67.1484 C   0  0  0  0  0  0  0  0  0  0  0  0
   65.3526   -6.0463  -67.7725 O   0  0  0  0  0  0  0  0  0  0  0  0
   67.2887   -2.0333  -66.4950 C   0  0  0  0  0  0  0  0  0  0  0  0
   72.1495   -2.0804  -66.7643 O   0  0  0  0  0  0  0  0  0  0  0  0
   61.9975   -6.0871  -70.3053 C   0  0  0  0  0  0  0  0  0  0  0  0
   63.1983   -9.5776  -68.3854 C   0  0  0  0  0  0  0  0  0  0  0  0
   69.5023   -1.7202  -65.7271 C   0  0  0  0  0  0  0  0  0  0  0  0
   68.1961   -1.3199  -65.7644 C   0  0  0  0  0  0  0  0  0  0  0  0
   60.0767   -4.5785  -70.6035 C   0  0  0  0  0  0  0  0  0  0  0  0
   66.6325   -4.5036  -69.0161 C   0  0  0  0  0  0  0  0  0  0  0  0
   73.4029   -4.3306  -65.6031 C   0  0  0  0  0  0  0  0  0  0  0  0
   64.6382   -7.2120  -67.9192 C   0  0  0  0  0  0  0  0  0  0  0  0
   67.6452   -3.1396  -67.2055 C   0  0  0  0  0  0  0  0  0  0  0  0
   65.4041   -5.3086  -68.9447 C   0  0  0  0  0  0  0  0  0  0  0  0
   71.4028   -3.0721  -66.4071 C   0  0  0  0  0  0  0  0  0  0  0  0
   65.2926   -3.2073  -67.6524 C   0  0  0  0  0  0  0  0  0  0  0  0
   61.9124   -8.4842  -70.0421 N   0  0  0  0  0  0  0  0  0  0  0  0
   67.4751   -4.7763  -69.8107 O   0  0  0  0  0  0  0  0  0  0  0  0
   62.9096   -8.4441  -69.1272 C   0  0  0  0  0  0  0  0  0  0  0  0
   73.4378   -6.7496  -65.6152 C   0  0  0  0  0  0  0  0  0  0  0  0
   64.8878   -8.3205  -67.1289 C   0  0  0  0  0  0  0  0  0  0  0  0
   61.4761   -4.7327  -70.6457 C   0  0  0  0  0  0  0  0  0  0  0  0
   71.4799   -5.5511  -66.4320 C   0  0  0  0  0  0  0  0  0  0  0  0
   72.0747   -4.3169  -66.1381 C   0  0  0  0  0  0  0  0  0  0  0  0
   63.6264   -7.2643  -68.8962 C   0  0  0  0  0  0  0  0  0  0  0  0
   69.9272   -2.8389  -66.4421 C   0  0  0  0  0  0  0  0  0  0  0  0
   59.1974   -5.7013  -70.6673 O   0  0  0  0  0  0  0  0  0  0  0  0
   72.1393   -6.7380  -66.1425 C   0  0  0  0  0  0  0  0  0  0  0  0
   66.6078   -3.7031  -67.9158 N   0  0  0  0  0  0  0  0  0  0  0  0
   74.0566   -5.5279  -65.3389 C   0  0  0  0  0  0  0  0  0  0  0  0
   64.1720   -4.9662  -69.6399 C   0  0  0  0  0  0  0  0  0  0  0  0
  1  8  1  0
  1 28  1  0
  1 34  1  0
  2  8  1  0
  2 20  2  0
  3  9  1  0
  3 24  1  0
  4 16  2  0
  4 29  1  0
  5 15  1  0
  5 17  1  0
  6 11  2  0
  6 16  1  0
  7 18  1  0
  8 25  1  0
  9 22  2  0
 10 11  1  0
 10 29  2  0
 12 25  1  0
 12 30  1  0
 13 17  1  0
 13 21  2  0
 13 32  1  0
 14 27  1  0
 14 33  2  0
 15 24  2  0
 15 28  1  0
 16 32  1  0
 17 34  1  0
 18 27  1  0
 18 29  1  0
 19 32  1  0
 20 22  1  0
 22 28  1  0
 23 31  1  0
 23 33  1  0
 26 27  1  0
 26 31  2  0
M  END
>  <ID>  (1) 
conformer_0

$$$$
