
     RDKit          3D

 27 29  0  0  0  0  0  0  0  0999 V2000
   65.2096   -3.4568  -70.0469 C   0  0  0  0  0  0  0  0  0  0  0  0
   63.8300   -3.9820  -69.9862 C   0  0  0  0  0  0  0  0  0  0  0  0
   70.1592   -3.6069  -66.6399 C   0  0  0  0  0  0  0  0  0  0  0  0
   64.4330   -4.3841  -67.2564 O   0  0  0  0  0  0  0  0  0  0  0  0
   69.2309   -1.0931  -65.9264 C   0  0  0  0  0  0  0  0  0  0  0  0
   60.6010   -9.9610  -67.9621 O   0  0  0  0  0  0  0  0  0  0  0  0
   64.5153   -6.5562  -68.0235 C   0  0  0  0  0  0  0  0  0  0  0  0
   64.4512   -8.5498  -66.7246 C   0  0  0  0  0  0  0  0  0  0  0  0
   64.1644   -2.7599  -69.2844 C   0  0  0  0  0  0  0  0  0  0  0  0
   70.9906   -2.7425  -65.9040 C   0  0  0  0  0  0  0  0  0  0  0  0
   70.4892   -1.4555  -65.5703 C   0  0  0  0  0  0  0  0  0  0  0  0
   62.0759   -8.9490  -69.5998 C   0  0  0  0  0  0  0  0  0  0  0  0
   66.0346   -4.2050  -68.9717 C   0  0  0  0  0  0  0  0  0  0  0  0
   63.6855   -7.1302  -68.9561 N   0  0  0  0  0  0  0  0  0  0  0  0
   66.5083   -5.5776  -68.4068 C   0  0  0  0  0  0  0  0  0  0  0  0
   67.0986   -3.3595  -68.6377 O   0  0  0  0  0  0  0  0  0  0  0  0
   63.1191   -8.3442  -68.7198 C   0  0  0  0  0  0  0  0  0  0  0  0
   68.4513   -1.9360  -66.7112 C   0  0  0  0  0  0  0  0  0  0  0  0
   63.5351   -9.0661  -67.5854 C   0  0  0  0  0  0  0  0  0  0  0  0
   64.9507   -7.2850  -66.9555 C   0  0  0  0  0  0  0  0  0  0  0  0
   65.1654   -5.1071  -68.1748 C   0  0  0  0  0  0  0  0  0  0  0  0
   68.9013   -3.1710  -67.1037 C   0  0  0  0  0  0  0  0  0  0  0  0
   67.6769   -5.3304  -67.6704 C   0  0  0  0  0  0  0  0  0  0  0  0
   68.1195   -4.0043  -67.9975 C   0  0  0  0  0  0  0  0  0  0  0  0
   70.5581   -4.8205  -66.8928 O   0  0  0  0  0  0  0  0  0  0  0  0
   61.5350  -11.2423  -69.4911 O   0  0  0  0  0  0  0  0  0  0  0  0
   61.3421  -10.1023  -68.9586 C   0  0  0  0  0  0  0  0  0  0  0  0
  1  9  1  0
  1 13  1  0
  2  9  1  0
  3 10  1  0
  3 22  2  0
  3 25  1  0
  4 21  1  0
  5 11  2  0
  5 18  1  0
  6 27  2  0
  7 14  1  0
  7 20  2  0
  7 21  1  0
  8 19  2  0
  8 20  1  0
 10 11  1  0
 12 17  1  0
 12 27  1  0
 13 16  1  0
 13 21  1  0
 14 17  2  0
 15 21  1  0
 15 23  1  0
 16 24  1  0
 17 19  1  0
 18 22  1  0
 22 24  1  0
 23 24  1  0
 26 27  1  0
M  END
>  <ID>  (1) 
conformer_0

$$$$
