
     RDKit          3D

 30 32  0  0  0  0  0  0  0  0999 V2000
   63.9004   -7.2981  -69.0292 N   0  0  0  0  0  0  0  0  0  0  0  0
   64.5722   -6.2155  -67.0694 C   0  0  0  0  0  0  0  0  0  0  0  0
   63.0692   -4.6570  -70.0149 C   0  0  0  0  0  0  0  0  0  0  0  0
   64.2475   -6.1371  -68.4272 C   0  0  0  0  0  0  0  0  0  0  0  0
   68.8220   -3.3255  -66.9047 C   0  0  0  0  0  0  0  0  0  0  0  0
   70.7178   -1.7964  -65.5717 C   0  0  0  0  0  0  0  0  0  0  0  0
   66.1225   -2.4527  -68.7077 C   0  0  0  0  0  0  0  0  0  0  0  0
   67.7580   -4.2016  -67.4309 C   0  0  0  0  0  0  0  0  0  0  0  0
   70.0500   -3.8854  -66.5831 C   0  0  0  0  0  0  0  0  0  0  0  0
   65.4254   -4.2799  -69.9948 C   0  0  0  0  0  0  0  0  0  0  0  0
   69.5578   -1.2013  -66.0428 C   0  0  0  0  0  0  0  0  0  0  0  0
   68.6460   -1.9558  -66.7547 C   0  0  0  0  0  0  0  0  0  0  0  0
   60.9611   -9.5628  -68.0536 O   0  0  0  0  0  0  0  0  0  0  0  0
   63.8807   -8.4729  -66.9992 N   0  0  0  0  0  0  0  0  0  0  0  0
   61.3027  -10.6153  -69.9799 O   0  0  0  0  0  0  0  0  0  0  0  0
   66.7428   -4.5832  -69.5160 C   0  0  0  0  0  0  0  0  0  0  0  0
   61.6722   -9.9203  -69.0059 C   0  0  0  0  0  0  0  0  0  0  0  0
   67.0431   -3.6025  -68.5148 N   0  0  0  0  0  0  0  0  0  0  0  0
   64.4300   -1.1909  -71.3825 O   0  0  0  0  0  0  0  0  0  0  0  0
   64.1416   -1.9901  -70.4872 C   0  0  0  0  0  0  0  0  0  0  0  0
   64.2869   -4.8445  -69.2267 C   0  0  0  0  0  0  0  0  0  0  0  0
   63.6291   -8.4389  -68.3390 C   0  0  0  0  0  0  0  0  0  0  0  0
   65.2916   -2.7355  -69.8948 C   0  0  0  0  0  0  0  0  0  0  0  0
   63.1316   -9.6491  -69.0490 C   0  0  0  0  0  0  0  0  0  0  0  0
   61.8494   -5.2794  -69.6788 O   0  0  0  0  0  0  0  0  0  0  0  0
   70.9529   -3.1502  -65.8789 C   0  0  0  0  0  0  0  0  0  0  0  0
   64.3576   -7.3603  -66.3878 C   0  0  0  0  0  0  0  0  0  0  0  0
   64.5070   -7.4208  -64.9996 F   0  0  0  0  0  0  0  0  0  0  0  0
   64.2348  -10.3527  -69.7232 C   0  0  0  0  0  0  0  0  0  0  0  0
   62.9611   -2.0335  -70.0420 O   0  0  0  0  0  0  0  0  0  0  0  0
  1  4  2  0
  1 22  1  0
  2  4  1  0
  2 27  2  0
  3 21  1  0
  3 25  1  0
  4 21  1  0
  5  8  1  0
  5  9  1  0
  5 12  1  0
  6 11  1  0
  6 26  1  0
  7 18  1  0
  7 23  1  0
  8 18  1  0
  9 26  2  0
 10 16  1  0
 10 21  1  0
 10 23  1  0
 11 12  2  0
 13 17  2  0
 14 22  2  0
 14 27  1  0
 15 17  1  0
 16 18  1  0
 17 24  1  0
 19 20  2  0
 20 23  1  0
 20 30  1  0
 22 24  1  0
 24 29  1  0
 27 28  1  0
M  END
>  <ID>  (1) 
conformer_0

$$$$
