
     RDKit          3D

 26 29  0  0  0  0  0  0  0  0999 V2000
   68.2766   -1.9946  -65.5851 F   0  0  0  0  0  0  0  0  0  0  0  0
   65.6704   -7.8796  -66.9971 C   0  0  0  0  0  0  0  0  0  0  0  0
   67.2924   -5.8955  -66.9018 C   0  0  0  0  0  0  0  0  0  0  0  0
   69.6463   -1.8754  -67.2505 F   0  0  0  0  0  0  0  0  0  0  0  0
   63.5340   -9.1253  -67.5386 N   0  0  0  0  0  0  0  0  0  0  0  0
   66.0795   -2.3433  -68.9867 C   0  0  0  0  0  0  0  0  0  0  0  0
   60.7641  -10.0009  -69.4906 O   0  0  0  0  0  0  0  0  0  0  0  0
   66.2341   -6.6928  -67.3030 C   0  0  0  0  0  0  0  0  0  0  0  0
   63.0643   -7.0968  -69.3824 C   0  0  0  0  0  0  0  0  0  0  0  0
   64.3200   -6.9287  -68.5342 N   0  0  0  0  0  0  0  0  0  0  0  0
   62.0692  -11.1428  -67.7738 O   0  0  0  0  0  0  0  0  0  0  0  0
   67.7554   -3.2714  -67.4521 C   0  0  0  0  0  0  0  0  0  0  0  0
   67.1544   -4.5392  -67.5657 C   0  0  0  0  0  0  0  0  0  0  0  0
   62.0310   -9.5513  -69.4372 C   0  0  0  0  0  0  0  0  0  0  0  0
   62.8587  -10.1184  -68.3079 C   0  0  0  0  0  0  0  0  0  0  0  0
   65.4003   -5.9942  -68.2926 N   0  0  0  0  0  0  0  0  0  0  0  0
   64.4410   -3.8126  -70.1216 C   0  0  0  0  0  0  0  0  0  0  0  0
   62.5262   -8.3338  -70.0680 C   0  0  0  0  0  0  0  0  0  0  0  0
   62.2781   -6.0743  -69.3227 O   0  0  0  0  0  0  0  0  0  0  0  0
   68.8622   -2.7391  -66.5631 C   0  0  0  0  0  0  0  0  0  0  0  0
   61.6012   -8.0749  -71.2566 C   0  0  0  0  0  0  0  0  0  0  0  0
   65.9972   -4.7072  -68.3859 C   0  0  0  0  0  0  0  0  0  0  0  0
   64.4341   -8.0599  -67.6861 C   0  0  0  0  0  0  0  0  0  0  0  0
   65.5357   -3.6120  -69.1212 C   0  0  0  0  0  0  0  0  0  0  0  0
   69.5806   -3.7161  -66.0798 F   0  0  0  0  0  0  0  0  0  0  0  0
   67.1809   -2.1873  -68.2049 C   0  0  0  0  0  0  0  0  0  0  0  0
  1 20  1  0
  2  8  1  0
  2 23  1  0
  3  8  1  0
  3 13  1  0
  4 20  1  0
  5 15  1  0
  5 23  2  0
  6 24  2  0
  6 26  1  0
  7 14  1  0
  8 16  1  0
  9 10  1  0
  9 18  1  0
  9 19  2  0
 10 16  1  0
 10 23  1  0
 11 15  1  0
 12 13  1  0
 12 20  1  0
 12 26  2  0
 13 22  2  0
 14 15  1  0
 14 18  1  0
 16 22  1  0
 17 24  1  0
 18 21  1  0
 20 25  1  0
 22 24  1  0
M  END
>  <ID>  (1) 
conformer_0

$$$$
