
     RDKit          3D

 25 28  0  0  0  0  0  0  0  0999 V2000
   63.8854   -8.7273  -68.1210 C   0  0  0  0  0  0  0  0  0  0  0  0
   63.0782   -7.9271  -70.4952 C   0  0  0  0  0  0  0  0  0  0  0  0
   70.9701   -2.7079  -65.7467 C   0  0  0  0  0  0  0  0  0  0  0  0
   67.4299   -2.4446  -68.0961 C   0  0  0  0  0  0  0  0  0  0  0  0
   68.5783   -2.5624  -67.2179 C   0  0  0  0  0  0  0  0  0  0  0  0
   65.0662   -5.9205  -68.2884 C   0  0  0  0  0  0  0  0  0  0  0  0
   64.7837   -4.7595  -69.0580 C   0  0  0  0  0  0  0  0  0  0  0  0
   70.2285   -1.5156  -65.7894 C   0  0  0  0  0  0  0  0  0  0  0  0
   61.7287  -10.6033  -68.4206 C   0  0  0  0  0  0  0  0  0  0  0  0
   66.2241   -5.9826  -67.5783 C   0  0  0  0  0  0  0  0  0  0  0  0
   62.1302   -8.9153  -69.9827 O   0  0  0  0  0  0  0  0  0  0  0  0
   66.7220   -3.7019  -68.2474 C   0  0  0  0  0  0  0  0  0  0  0  0
   62.6064   -5.5910  -69.7571 C   0  0  0  0  0  0  0  0  0  0  0  0
   63.3539   -6.7392  -66.7576 C   0  0  0  0  0  0  0  0  0  0  0  0
   63.1587   -6.8814  -69.4147 C   0  0  0  0  0  0  0  0  0  0  0  0
   62.7915   -9.5874  -68.8403 C   0  0  0  0  0  0  0  0  0  0  0  0
   67.0179   -4.8824  -67.5262 C   0  0  0  0  0  0  0  0  0  0  0  0
   71.1985   -4.9451  -66.5354 F   0  0  0  0  0  0  0  0  0  0  0  0
   69.0577   -1.4423  -66.5531 C   0  0  0  0  0  0  0  0  0  0  0  0
   69.2983   -3.7779  -67.0665 C   0  0  0  0  0  0  0  0  0  0  0  0
   65.6687   -3.7110  -69.0769 N   0  0  0  0  0  0  0  0  0  0  0  0
   60.6387   -9.8190  -67.8793 O   0  0  0  0  0  0  0  0  0  0  0  0
   63.6107   -4.5922  -69.8204 N   0  0  0  0  0  0  0  0  0  0  0  0
   64.0152   -7.1071  -68.2102 C   0  0  0  0  0  0  0  0  0  0  0  0
   70.4884   -3.8266  -66.4303 C   0  0  0  0  0  0  0  0  0  0  0  0
  1 16  1  0
  1 24  1  0
  2 11  1  0
  2 15  1  0
  3  8  2  0
  3 25  1  0
  4  5  1  0
  4 12  1  0
  5 19  2  0
  5 20  1  0
  6  7  2  0
  6 10  1  0
  6 24  1  0
  7 21  1  0
  7 23  1  0
  8 19  1  0
  9 16  1  0
  9 22  1  0
 10 17  2  0
 11 16  1  0
 12 17  1  0
 12 21  2  0
 13 15  1  0
 13 23  1  0
 14 24  1  0
 15 24  1  0
 18 25  1  0
 20 25  2  0
M  END
>  <ID>  (1) 
conformer_0

$$$$
