
     RDKit          3D

 27 29  0  0  0  0  0  0  0  0999 V2000
   63.7800  -10.0979  -68.3947 C   0  0  0  0  0  0  0  0  0  0  0  0
   68.9832   -1.2841  -66.1294 C   0  0  0  0  0  0  0  0  0  0  0  0
   72.6160   -4.5408  -66.1934 C   0  0  0  0  0  0  0  0  0  0  0  0
   60.3868  -11.8574  -68.7179 O   0  0  0  0  0  0  0  0  0  0  0  0
   65.0992   -2.8141  -69.4419 C   0  0  0  0  0  0  0  0  0  0  0  0
   71.0669   -2.6054  -66.0159 C   0  0  0  0  0  0  0  0  0  0  0  0
   71.3921   -3.8929  -66.3617 C   0  0  0  0  0  0  0  0  0  0  0  0
   64.8963   -5.4855  -68.5598 C   0  0  0  0  0  0  0  0  0  0  0  0
   66.0138   -4.6600  -68.2419 C   0  0  0  0  0  0  0  0  0  0  0  0
   69.2371   -3.5459  -66.9761 C   0  0  0  0  0  0  0  0  0  0  0  0
   67.0869   -2.6993  -67.9602 O   0  0  0  0  0  0  0  0  0  0  0  0
   63.4746  -10.5772  -69.8341 C   0  0  0  0  0  0  0  0  0  0  0  0
   69.7136   -2.4095  -66.3713 N   0  0  0  0  0  0  0  0  0  0  0  0
   63.8598   -4.9284  -69.3520 C   0  0  0  0  0  0  0  0  0  0  0  0
   67.9098   -3.6873  -67.5118 C   0  0  0  0  0  0  0  0  0  0  0  0
   63.8724   -7.6955  -69.0368 C   0  0  0  0  0  0  0  0  0  0  0  0
   63.0142   -8.7731  -68.3001 C   0  0  0  0  0  0  0  0  0  0  0  0
   63.3614   -6.5519  -66.8512 C   0  0  0  0  0  0  0  0  0  0  0  0
   67.2378   -4.8988  -67.6334 C   0  0  0  0  0  0  0  0  0  0  0  0
   65.6837   -7.5680  -67.2918 C   0  0  0  0  0  0  0  0  0  0  0  0
   63.9321   -3.5720  -69.6330 C   0  0  0  0  0  0  0  0  0  0  0  0
   61.9170  -10.5987  -69.9529 C   0  0  0  0  0  0  0  0  0  0  0  0
   60.7010   -9.9059  -67.8072 O   0  0  0  0  0  0  0  0  0  0  0  0
   65.9821   -3.2722  -68.5039 C   0  0  0  0  0  0  0  0  0  0  0  0
   64.5175   -6.7941  -67.9189 C   0  0  0  0  0  0  0  0  0  0  0  0
   70.2369   -4.4436  -66.9490 C   0  0  0  0  0  0  0  0  0  0  0  0
   61.1073  -10.7382  -68.6601 C   0  0  0  0  0  0  0  0  0  0  0  0
  1 12  1  0
  1 17  1  0
  2 13  1  0
  3  7  1  0
  4 27  2  0
  5 21  1  0
  5 24  1  0
  6  7  1  0
  6 13  1  0
  7 26  1  0
  8  9  1  0
  8 14  1  0
  8 25  1  0
  9 19  1  0
  9 24  1  0
 10 13  1  0
 10 15  1  0
 10 26  1  0
 11 15  1  0
 11 24  1  0
 12 22  1  0
 14 21  2  0
 15 19  1  0
 16 17  1  0
 16 25  1  0
 18 25  1  0
 20 25  1  0
 22 27  1  0
 23 27  1  0
M  END
>  <ID>  (1) 
conformer_0

$$$$
