
     RDKit          3D

 29 32  0  0  0  0  0  0  0  0999 V2000
   68.2849   -4.5428  -67.9146 C   0  0  0  0  0  0  0  0  0  0  0  0
   60.7573  -10.4182  -68.8810 O   0  0  0  0  0  0  0  0  0  0  0  0
   66.0189   -5.0890  -68.3071 C   0  0  0  0  0  0  0  0  0  0  0  0
   66.8918   -2.4117  -68.1975 C   0  0  0  0  0  0  0  0  0  0  0  0
   67.3753   -5.1778  -68.7793 C   0  0  0  0  0  0  0  0  0  0  0  0
   63.9404   -8.1138  -68.3468 C   0  0  0  0  0  0  0  0  0  0  0  0
   68.1100   -3.0815  -67.8796 C   0  0  0  0  0  0  0  0  0  0  0  0
   62.2669   -5.5873  -71.3924 C   0  0  0  0  0  0  0  0  0  0  0  0
   62.2354   -7.9012  -70.4676 C   0  0  0  0  0  0  0  0  0  0  0  0
   70.8000   -2.5972  -65.4803 C   0  0  0  0  0  0  0  0  0  0  0  0
   63.9514   -6.0156  -69.6410 C   0  0  0  0  0  0  0  0  0  0  0  0
   68.9232   -1.3966  -66.2589 C   0  0  0  0  0  0  0  0  0  0  0  0
   65.1869   -4.0420  -68.8903 C   0  0  0  0  0  0  0  0  0  0  0  0
   64.2665   -4.5814  -69.9015 C   0  0  0  0  0  0  0  0  0  0  0  0
   63.0021   -6.6335  -70.5663 C   0  0  0  0  0  0  0  0  0  0  0  0
   64.1109   -6.6140  -68.2665 C   0  0  0  0  0  0  0  0  0  0  0  0
   70.1263   -1.2906  -65.3813 C   0  0  0  0  0  0  0  0  0  0  0  0
   62.8156   -9.1085  -68.4250 C   0  0  0  0  0  0  0  0  0  0  0  0
   63.1958   -5.9953  -67.1885 C   0  0  0  0  0  0  0  0  0  0  0  0
   62.7248   -9.2500  -69.9978 C   0  0  0  0  0  0  0  0  0  0  0  0
   60.8787   -7.8043  -70.4272 O   0  0  0  0  0  0  0  0  0  0  0  0
   65.8670   -2.8169  -69.0822 C   0  0  0  0  0  0  0  0  0  0  0  0
   64.9802   -8.7943  -67.4360 C   0  0  0  0  0  0  0  0  0  0  0  0
   70.2358   -3.3080  -66.6464 C   0  0  0  0  0  0  0  0  0  0  0  0
   65.5670   -6.3871  -67.8313 C   0  0  0  0  0  0  0  0  0  0  0  0
   61.8422  -10.0229  -67.9762 O   0  0  0  0  0  0  0  0  0  0  0  0
   61.5018   -4.6698  -70.6218 O   0  0  0  0  0  0  0  0  0  0  0  0
   69.1227   -2.5124  -67.1147 N   0  0  0  0  0  0  0  0  0  0  0  0
   64.7255   -8.3848  -66.0862 O   0  0  0  0  0  0  0  0  0  0  0  0
  1  5  1  0
  1  7  1  0
  2 26  1  0
  3  5  1  0
  3 13  1  0
  3 25  1  0
  4  7  1  0
  4 22  1  0
  6 16  1  0
  6 18  1  0
  6 23  1  0
  7 28  1  0
  8 15  1  0
  8 27  1  0
  9 15  1  0
  9 20  1  0
  9 21  1  0
 10 17  1  0
 10 24  1  0
 11 14  1  0
 11 15  1  0
 11 16  1  0
 12 17  1  0
 12 28  1  0
 13 14  1  0
 13 22  1  0
 16 19  1  0
 16 25  1  0
 18 20  1  0
 18 26  1  0
 23 29  1  0
 24 28  1  0
M  END
>  <ID>  (1) 
conformer_0

$$$$
