
     RDKit          3D

 24 26  0  0  0  0  0  0  0  0999 V2000
   67.6971   -2.4839  -68.0380 C   0  0  0  0  0  0  0  0  0  0  0  0
   63.4701   -9.8847  -68.4974 C   0  0  0  0  0  0  0  0  0  0  0  0
   61.9820   -6.9376  -70.9151 N   0  0  0  0  0  0  0  0  0  0  0  0
   63.6805   -6.6948  -69.1774 C   0  0  0  0  0  0  0  0  0  0  0  0
   61.9546   -8.3496  -70.8151 C   0  0  0  0  0  0  0  0  0  0  0  0
   70.8189   -3.7200  -66.2740 C   0  0  0  0  0  0  0  0  0  0  0  0
   64.5478   -9.3852  -67.5140 C   0  0  0  0  0  0  0  0  0  0  0  0
   68.0665   -4.5897  -67.0094 N   0  0  0  0  0  0  0  0  0  0  0  0
   69.8604   -1.4069  -66.1372 C   0  0  0  0  0  0  0  0  0  0  0  0
   64.7296   -6.1816  -68.4895 C   0  0  0  0  0  0  0  0  0  0  0  0
   62.9535   -6.1470  -70.1937 C   0  0  0  0  0  0  0  0  0  0  0  0
   67.0113   -4.9567  -67.5390 C   0  0  0  0  0  0  0  0  0  0  0  0
   63.2658   -7.4873  -66.3806 O   0  0  0  0  0  0  0  0  0  0  0  0
   64.3367   -4.1661  -69.8547 C   0  0  0  0  0  0  0  0  0  0  0  0
   66.2547   -4.2057  -68.3690 N   0  0  0  0  0  0  0  0  0  0  0  0
   63.2705   -4.7703  -70.5223 C   0  0  0  0  0  0  0  0  0  0  0  0
   69.6871   -2.8290  -66.4073 C   0  0  0  0  0  0  0  0  0  0  0  0
   61.7986   -9.0253  -72.0130 O   0  0  0  0  0  0  0  0  0  0  0  0
   65.0903   -4.8427  -68.9015 C   0  0  0  0  0  0  0  0  0  0  0  0
   65.4277   -7.0347  -67.4261 C   0  0  0  0  0  0  0  0  0  0  0  0
   66.5967   -2.9251  -68.6635 N   0  0  0  0  0  0  0  0  0  0  0  0
   68.4660   -3.2912  -67.1862 C   0  0  0  0  0  0  0  0  0  0  0  0
   62.2703   -9.4791  -69.6601 C   0  0  0  0  0  0  0  0  0  0  0  0
   64.5292   -8.0410  -66.7946 C   0  0  0  0  0  0  0  0  0  0  0  0
  1 21  1  0
  1 22  2  0
  2  7  1  0
  2 23  1  0
  3  5  1  0
  3 11  1  0
  4 10  1  0
  4 11  2  0
  5 18  2  0
  5 23  1  0
  6 17  1  0
  7 24  1  0
  8 12  2  0
  8 22  1  0
  9 17  1  0
 10 19  2  0
 10 20  1  0
 11 16  1  0
 12 15  1  0
 13 24  1  0
 14 16  2  0
 14 19  1  0
 15 19  1  0
 15 21  1  0
 17 22  1  0
 20 24  1  0
M  END
>  <ID>  (1) 
conformer_0

$$$$
