
     RDKit          3D

 21 23  0  0  0  0  0  0  0  0999 V2000
   65.2304   -5.1596  -68.4639 C   0  0  0  0  0  0  0  0  0  0  0  0
   70.9360   -2.4986  -65.1874 O   0  0  0  0  0  0  0  0  0  0  0  0
   64.2530  -10.1477  -67.7549 C   0  0  0  0  0  0  0  0  0  0  0  0
   63.1750   -9.3024  -68.3606 C   0  0  0  0  0  0  0  0  0  0  0  0
   61.8768  -10.0151  -70.1701 O   0  0  0  0  0  0  0  0  0  0  0  0
   66.2966   -4.2628  -68.0633 C   0  0  0  0  0  0  0  0  0  0  0  0
   64.8924   -7.6138  -68.0370 C   0  0  0  0  0  0  0  0  0  0  0  0
   69.6568   -3.8346  -66.6653 N   0  0  0  0  0  0  0  0  0  0  0  0
   65.4467   -6.4719  -68.0998 C   0  0  0  0  0  0  0  0  0  0  0  0
   62.9323   -6.9325  -69.2523 C   0  0  0  0  0  0  0  0  0  0  0  0
   66.3192   -2.9174  -67.7527 C   0  0  0  0  0  0  0  0  0  0  0  0
   67.6251   -2.6055  -67.1352 C   0  0  0  0  0  0  0  0  0  0  0  0
   67.5790   -4.8235  -67.7373 C   0  0  0  0  0  0  0  0  0  0  0  0
   64.0838   -4.7322  -69.1584 C   0  0  0  0  0  0  0  0  0  0  0  0
   63.6303   -7.9019  -68.5700 C   0  0  0  0  0  0  0  0  0  0  0  0
   68.8246   -1.4138  -66.1342 S   0  0  0  0  0  0  0  0  0  0  0  0
   68.3620   -3.8088  -67.1755 C   0  0  0  0  0  0  0  0  0  0  0  0
   63.0806   -5.6075  -69.5140 C   0  0  0  0  0  0  0  0  0  0  0  0
   69.9970   -2.7134  -65.9483 C   0  0  0  0  0  0  0  0  0  0  0  0
   61.8728   -9.6397  -68.9556 C   0  0  0  0  0  0  0  0  0  0  0  0
   60.8756   -9.7024  -68.1759 O   0  0  0  0  0  0  0  0  0  0  0  0
  1  6  1  0
  1  9  1  0
  1 14  2  0
  2 19  2  0
  3  4  1  0
  4 15  2  3
  4 20  1  0
  5 20  2  0
  6 11  1  0
  6 13  1  0
  7  9  2  0
  7 15  1  0
  8 17  1  0
  8 19  1  0
 10 15  1  0
 10 18  2  0
 11 12  1  0
 12 16  1  0
 12 17  2  0
 13 17  1  0
 14 18  1  0
 16 19  1  0
 20 21  1  0
M  END
>  <ID>  (1) 
conformer_0

$$$$
