
     RDKit          3D

 34 37  0  0  0  0  0  0  0  0999 V2000
   66.1315   -7.0108  -67.1155 C   0  0  0  0  0  0  0  0  0  0  0  0
   65.6821   -4.9125  -68.3085 C   0  0  0  0  0  0  0  0  0  0  0  0
   64.4095   -5.3458  -68.6878 C   0  0  0  0  0  0  0  0  0  0  0  0
   63.3015  -11.3045  -69.9427 C   0  0  0  0  0  0  0  0  0  0  0  0
   62.7076   -6.3707  -67.2875 O   0  0  0  0  0  0  0  0  0  0  0  0
   62.5677   -8.9810  -70.3876 C   0  0  0  0  0  0  0  0  0  0  0  0
   71.2355   -2.9045  -66.3616 C   0  0  0  0  0  0  0  0  0  0  0  0
   68.5656   -2.9792  -67.4267 C   0  0  0  0  0  0  0  0  0  0  0  0
   62.5363   -7.6495  -70.1373 N   0  0  0  0  0  0  0  0  0  0  0  0
   61.6871   -6.6348  -72.3236 C   0  0  0  0  0  0  0  0  0  0  0  0
   66.1107   -3.6283  -68.7002 C   0  0  0  0  0  0  0  0  0  0  0  0
   66.5309   -5.7515  -67.5584 C   0  0  0  0  0  0  0  0  0  0  0  0
   60.6897   -9.6733  -67.9930 O   0  0  0  0  0  0  0  0  0  0  0  0
   62.8527   -5.1033  -70.7240 O   0  0  0  0  0  0  0  0  0  0  0  0
   67.2422   -2.9497  -68.0643 C   0  0  0  0  0  0  0  0  0  0  0  0
   61.4148   -6.9054  -70.7878 C   0  0  0  0  0  0  0  0  0  0  0  0
   63.8498   -4.7184  -69.8440 C   0  0  0  0  0  0  0  0  0  0  0  0
   65.4545   -2.9598  -69.7045 C   0  0  0  0  0  0  0  0  0  0  0  0
   70.5566   -4.1414  -66.6684 C   0  0  0  0  0  0  0  0  0  0  0  0
   62.7049  -10.0183  -69.2554 C   0  0  0  0  0  0  0  0  0  0  0  0
   61.4111  -10.4768  -68.6032 C   0  0  0  0  0  0  0  0  0  0  0  0
   61.1699  -11.7255  -68.4873 O   0  0  0  0  0  0  0  0  0  0  0  0
   69.2899   -4.1680  -67.1821 C   0  0  0  0  0  0  0  0  0  0  0  0
   63.7678   -9.5726  -68.2026 C   0  0  0  0  0  0  0  0  0  0  0  0
   61.5327   -5.4308  -70.2524 C   0  0  0  0  0  0  0  0  0  0  0  0
   63.9206   -6.4034  -67.8052 C   0  0  0  0  0  0  0  0  0  0  0  0
   64.4224   -8.7299  -67.2174 O   0  0  0  0  0  0  0  0  0  0  0  0
   70.5158   -1.7277  -66.5043 C   0  0  0  0  0  0  0  0  0  0  0  0
   66.7968   -1.4948  -68.0169 C   0  0  0  0  0  0  0  0  0  0  0  0
   72.5026   -2.9087  -65.9450 O   0  0  0  0  0  0  0  0  0  0  0  0
   69.2129   -1.7928  -67.0050 C   0  0  0  0  0  0  0  0  0  0  0  0
   64.8125   -7.3775  -67.3421 C   0  0  0  0  0  0  0  0  0  0  0  0
   64.3783   -3.5358  -70.2978 C   0  0  0  0  0  0  0  0  0  0  0  0
   62.5815   -9.3654  -71.5913 O   0  0  0  0  0  0  0  0  0  0  0  0
  1 12  1  0
  1 32  2  0
  2  3  1  0
  2 11  1  0
  2 12  2  0
  3 17  1  0
  3 26  1  0
  4 20  1  0
  5 26  1  0
  6  9  1  0
  6 20  1  0
  6 34  2  0
  7 19  2  0
  7 28  1  0
  7 30  1  0
  8 15  1  0
  8 23  2  0
  8 31  1  0
  9 16  1  0
 10 16  1  0
 11 15  1  0
 11 18  1  0
 13 21  2  0
 14 17  1  0
 14 25  1  0
 15 29  1  0
 16 25  1  0
 17 33  1  0
 18 33  2  0
 19 23  1  0
 20 21  1  0
 20 24  1  0
 21 22  1  0
 24 27  1  0
 26 32  1  0
 27 32  1  0
 28 31  2  0
M  END
>  <ID>  (1) 
conformer_0

$$$$
