
     RDKit          3D

 23 24  0  0  0  0  0  0  0  0999 V2000
   65.2171   -7.7038  -66.2094 F   0  0  0  0  0  0  0  0  0  0  0  0
   63.6048   -8.2268  -67.9800 C   0  0  0  0  0  0  0  0  0  0  0  0
   64.1125   -5.6504  -68.7823 C   0  0  0  0  0  0  0  0  0  0  0  0
   68.9825   -3.9762  -67.2061 C   0  0  0  0  0  0  0  0  0  0  0  0
   61.2243   -9.1629  -69.3437 O   0  0  0  0  0  0  0  0  0  0  0  0
   65.5229   -3.6653  -68.4715 C   0  0  0  0  0  0  0  0  0  0  0  0
   62.2419   -9.8669  -69.3518 C   0  0  0  0  0  0  0  0  0  0  0  0
   69.8806   -2.9888  -66.6613 C   0  0  0  0  0  0  0  0  0  0  0  0
   67.3880   -5.5088  -68.7956 C   0  0  0  0  0  0  0  0  0  0  0  0
   63.5607   -9.2998  -68.9712 C   0  0  0  0  0  0  0  0  0  0  0  0
   64.9612   -7.7322  -67.6115 C   0  0  0  0  0  0  0  0  0  0  0  0
   67.5505   -2.1156  -67.7045 C   0  0  0  0  0  0  0  0  0  0  0  0
   66.5048   -5.7481  -67.8800 C   0  0  0  0  0  0  0  0  0  0  0  0
   67.0498   -1.6161  -68.7804 O   0  0  0  0  0  0  0  0  0  0  0  0
   69.4573   -1.6693  -66.2500 C   0  0  0  0  0  0  0  0  0  0  0  0
   64.8675   -3.0376  -67.3455 F   0  0  0  0  0  0  0  0  0  0  0  0
   65.2376   -6.4050  -68.2105 C   0  0  0  0  0  0  0  0  0  0  0  0
   67.6968   -3.5404  -67.5599 C   0  0  0  0  0  0  0  0  0  0  0  0
   62.1659  -11.3258  -69.4926 C   0  0  0  0  0  0  0  0  0  0  0  0
   68.0383   -1.3729  -66.5281 C   0  0  0  0  0  0  0  0  0  0  0  0
   62.5997   -7.6652  -67.3410 O   0  0  0  0  0  0  0  0  0  0  0  0
   66.7747   -4.4299  -68.3004 C   0  0  0  0  0  0  0  0  0  0  0  0
   64.5689   -4.3258  -69.3701 C   0  0  0  0  0  0  0  0  0  0  0  0
  1 11  1  0
  2 10  2  3
  2 11  1  0
  2 21  1  0
  3 17  1  0
  3 23  1  0
  4  8  2  0
  4 18  1  0
  5  7  2  0
  6 16  1  0
  6 22  1  0
  6 23  1  0
  7 10  1  0
  7 19  1  0
  8 15  1  0
  9 13  1  0
  9 22  1  0
 11 17  1  0
 12 14  1  0
 12 18  1  0
 12 20  1  0
 13 17  1  0
 15 20  1  0
 18 22  1  0
M  END
>  <ID>  (1) 
conformer_0

$$$$
