
     RDKit          3D

 27 30  0  0  0  0  0  0  0  0999 V2000
   72.0647   -4.1880  -66.0807 C   0  0  0  0  0  0  0  0  0  0  0  0
   67.8816   -2.2040  -67.9484 O   0  0  0  0  0  0  0  0  0  0  0  0
   63.4872  -10.0452  -68.7875 C   0  0  0  0  0  0  0  0  0  0  0  0
   62.8454   -7.2540  -69.5218 C   0  0  0  0  0  0  0  0  0  0  0  0
   72.4674   -5.4752  -66.5133 C   0  0  0  0  0  0  0  0  0  0  0  0
   68.1191   -3.2698  -67.2249 C   0  0  0  0  0  0  0  0  0  0  0  0
   63.9306   -5.4135  -69.2520 C   0  0  0  0  0  0  0  0  0  0  0  0
   73.0272   -6.1374  -65.2944 C   0  0  0  0  0  0  0  0  0  0  0  0
   64.4081   -4.0960  -69.3166 C   0  0  0  0  0  0  0  0  0  0  0  0
   62.9018   -5.9611  -69.8939 N   0  0  0  0  0  0  0  0  0  0  0  0
   69.2318   -3.3148  -66.2183 C   0  0  0  0  0  0  0  0  0  0  0  0
   70.3683   -2.5291  -66.6025 C   0  0  0  0  0  0  0  0  0  0  0  0
   63.8075   -7.5272  -68.6006 N   0  0  0  0  0  0  0  0  0  0  0  0
   61.8766   -8.3372  -70.1200 C   0  0  0  0  0  0  0  0  0  0  0  0
   67.6316   -4.6002  -67.4871 C   0  0  0  0  0  0  0  0  0  0  0  0
   63.9560   -8.8370  -67.9205 C   0  0  0  0  0  0  0  0  0  0  0  0
   62.0199  -10.3493  -68.8193 C   0  0  0  0  0  0  0  0  0  0  0  0
   72.9630   -5.1118  -64.2659 O   0  0  0  0  0  0  0  0  0  0  0  0
   71.2058   -3.4497  -63.7299 C   0  0  0  0  0  0  0  0  0  0  0  0
   65.7281   -6.0599  -67.8202 C   0  0  0  0  0  0  0  0  0  0  0  0
   71.5797   -3.1307  -66.8493 C   0  0  0  0  0  0  0  0  0  0  0  0
   61.1996   -9.2258  -69.1052 O   0  0  0  0  0  0  0  0  0  0  0  0
   65.6186   -3.8334  -68.6825 C   0  0  0  0  0  0  0  0  0  0  0  0
   70.2163   -1.0941  -66.3721 C   0  0  0  0  0  0  0  0  0  0  0  0
   64.5597   -6.3878  -68.4740 C   0  0  0  0  0  0  0  0  0  0  0  0
   66.3056   -4.7909  -67.9856 C   0  0  0  0  0  0  0  0  0  0  0  0
   72.1239   -4.2138  -64.6622 C   0  0  0  0  0  0  0  0  0  0  0  0
  1  5  1  0
  1 21  1  0
  1 27  1  0
  2  6  1  0
  3 16  1  0
  3 17  1  0
  4 10  2  0
  4 13  1  0
  4 14  1  0
  5  8  1  0
  6 11  1  0
  6 15  1  0
  7  9  1  0
  7 10  1  0
  7 25  2  0
  8 18  1  0
  9 23  1  0
 11 12  1  0
 12 21  1  0
 12 24  1  0
 13 16  1  0
 13 25  1  0
 14 22  1  0
 15 26  1  0
 17 22  1  0
 18 27  1  0
 19 27  1  0
 20 25  1  0
 20 26  1  0
 23 26  2  0
M  END
>  <ID>  (1) 
conformer_0

$$$$
