
     RDKit          3D

 32 35  0  0  0  0  0  0  0  0999 V2000
   71.4759   -4.2643  -66.2250 C   0  0  0  0  0  0  0  0  0  0  0  0
   68.0647   -2.8994  -67.3270 C   0  0  0  0  0  0  0  0  0  0  0  0
   66.9182   -3.1172  -68.1586 C   0  0  0  0  0  0  0  0  0  0  0  0
   69.1186   -3.7814  -67.0965 C   0  0  0  0  0  0  0  0  0  0  0  0
   70.2757   -3.4058  -66.3621 C   0  0  0  0  0  0  0  0  0  0  0  0
   63.4644  -10.2518  -68.0370 C   0  0  0  0  0  0  0  0  0  0  0  0
   61.5004   -8.3624  -70.8450 C   0  0  0  0  0  0  0  0  0  0  0  0
   66.0224   -6.8682  -68.0631 O   0  0  0  0  0  0  0  0  0  0  0  0
   62.6128   -4.4011  -70.5824 C   0  0  0  0  0  0  0  0  0  0  0  0
   65.2166   -2.4420  -69.5397 C   0  0  0  0  0  0  0  0  0  0  0  0
   66.2817   -2.0214  -68.7688 C   0  0  0  0  0  0  0  0  0  0  0  0
   63.0767   -8.2533  -69.1118 C   0  0  0  0  0  0  0  0  0  0  0  0
   69.2206   -1.2636  -65.9156 C   0  0  0  0  0  0  0  0  0  0  0  0
   62.3374  -10.6985  -69.4303 S   0  0  0  0  0  0  0  0  0  0  0  0
   64.1589   -8.0139  -66.8576 C   0  0  0  0  0  0  0  0  0  0  0  0
   65.1129   -3.8145  -69.4213 C   0  0  0  0  0  0  0  0  0  0  0  0
   59.9799   -5.4752  -70.3191 O   0  0  0  0  0  0  0  0  0  0  0  0
   65.5198   -7.4930  -66.8868 C   0  0  0  0  0  0  0  0  0  0  0  0
   63.6732   -8.8488  -67.9955 C   0  0  0  0  0  0  0  0  0  0  0  0
   70.3222   -2.1022  -65.7573 C   0  0  0  0  0  0  0  0  0  0  0  0
   62.2159   -9.1080  -69.9106 C   0  0  0  0  0  0  0  0  0  0  0  0
   61.1684   -5.6684  -71.1020 P   0  0  0  0  0  0  0  0  0  0  0  0
   62.9833   -7.0009  -69.6683 C   0  0  0  0  0  0  0  0  0  0  0  0
   63.1528   -6.9622  -66.6653 O   0  0  0  0  0  0  0  0  0  0  0  0
   71.4713   -5.4338  -66.6368 O   0  0  0  0  0  0  0  0  0  0  0  0
   66.4112   -5.5555  -68.1745 N   0  0  0  0  0  0  0  0  0  0  0  0
   61.0182   -5.5577  -72.5076 O   0  0  0  0  0  0  0  0  0  0  0  0
   72.5217   -3.7503  -65.6751 O   0  0  0  0  0  0  0  0  0  0  0  0
   64.0698   -4.5096  -70.1981 C   0  0  0  0  0  0  0  0  0  0  0  0
   68.1697   -1.6503  -66.6852 C   0  0  0  0  0  0  0  0  0  0  0  0
   61.9534   -6.9686  -70.5717 C   0  0  0  0  0  0  0  0  0  0  0  0
   66.1707   -4.2502  -68.5463 C   0  0  0  0  0  0  0  0  0  0  0  0
  1  5  1  0
  1 25  2  0
  1 28  1  0
  2  3  1  0
  2  4  2  0
  2 30  1  0
  3 11  1  0
  3 32  2  0
  4  5  1  0
  5 20  2  0
  6 14  1  0
  6 19  1  0
  7 21  1  0
  7 31  1  0
  8 18  1  0
  8 26  1  0
  9 29  1  0
 10 11  1  0
 10 16  1  0
 12 19  1  0
 12 21  2  0
 12 23  1  0
 13 20  1  0
 13 30  2  0
 14 21  1  0
 15 18  1  0
 15 19  1  0
 15 24  1  0
 16 29  1  0
 16 32  1  0
 17 22  1  0
 22 27  1  0
 22 31  1  0
 23 31  1  0
 26 32  1  0
M  END
>  <ID>  (1) 
conformer_0

$$$$
