
     RDKit          3D

 30 35  0  0  0  0  0  0  0  0999 V2000
   70.3987   -1.8605  -65.7680 C   0  0  0  0  0  0  0  0  0  0  0  0
   65.7711   -5.5112  -68.2271 C   0  0  0  0  0  0  0  0  0  0  0  0
   62.0865   -4.8092  -70.4774 C   0  0  0  0  0  0  0  0  0  0  0  0
   68.1113   -4.2097  -67.3040 C   0  0  0  0  0  0  0  0  0  0  0  0
   61.6573   -9.4480  -68.8431 C   0  0  0  0  0  0  0  0  0  0  0  0
   66.9477   -3.4492  -67.5742 C   0  0  0  0  0  0  0  0  0  0  0  0
   64.6557   -6.4999  -68.3250 N   0  0  0  0  0  0  0  0  0  0  0  0
   70.5524   -3.9984  -66.7115 C   0  0  0  0  0  0  0  0  0  0  0  0
   64.6825   -7.7031  -67.4980 C   0  0  0  0  0  0  0  0  0  0  0  0
   65.1918   -3.3182  -69.1021 O   0  0  0  0  0  0  0  0  0  0  0  0
   63.5559   -2.4743  -70.4270 C   0  0  0  0  0  0  0  0  0  0  0  0
   60.8143   -9.6062  -67.8985 O   0  0  0  0  0  0  0  0  0  0  0  0
   61.5945   -3.7236  -71.1122 C   0  0  0  0  0  0  0  0  0  0  0  0
   66.9448   -6.1784  -67.9081 C   0  0  0  0  0  0  0  0  0  0  0  0
   69.1400   -2.2657  -66.2761 C   0  0  0  0  0  0  0  0  0  0  0  0
   66.8743   -2.1714  -67.0585 C   0  0  0  0  0  0  0  0  0  0  0  0
   64.0439   -3.5682  -69.7653 C   0  0  0  0  0  0  0  0  0  0  0  0
   67.9542   -1.6272  -66.3725 C   0  0  0  0  0  0  0  0  0  0  0  0
   65.9280   -4.0792  -68.3040 C   0  0  0  0  0  0  0  0  0  0  0  0
   62.2300   -7.5906  -70.7824 O   0  0  0  0  0  0  0  0  0  0  0  0
   61.6103  -10.3957  -69.7380 O   0  0  0  0  0  0  0  0  0  0  0  0
   62.7561   -7.3425  -69.5966 C   0  0  0  0  0  0  0  0  0  0  0  0
   63.9759   -8.9053  -68.0819 C   0  0  0  0  0  0  0  0  0  0  0  0
   63.3102   -4.8526  -69.7875 C   0  0  0  0  0  0  0  0  0  0  0  0
   71.2999   -2.9409  -66.0798 C   0  0  0  0  0  0  0  0  0  0  0  0
   68.0788   -5.5696  -67.5229 C   0  0  0  0  0  0  0  0  0  0  0  0
   69.2497   -3.5897  -66.8013 C   0  0  0  0  0  0  0  0  0  0  0  0
   62.6789   -8.4436  -68.6881 N   0  0  0  0  0  0  0  0  0  0  0  0
   63.6079   -6.2065  -69.2022 C   0  0  0  0  0  0  0  0  0  0  0  0
   62.3368   -2.5300  -71.0952 C   0  0  0  0  0  0  0  0  0  0  0  0
  1 15  1  0
  1 25  1  0
  2  7  1  0
  2 14  1  0
  2 19  1  0
  3 13  2  0
  3 24  1  0
  4  6  2  0
  4 26  1  0
  4 27  1  0
  5 12  2  0
  5 21  1  0
  5 28  1  0
  6 16  1  0
  6 19  1  0
  7  9  1  0
  7 29  1  0
  8 25  1  0
  8 27  1  0
  9 23  1  0
 10 17  1  0
 10 19  1  0
 11 17  2  0
 11 30  1  0
 13 30  1  0
 14 26  2  0
 15 18  2  0
 15 27  1  0
 16 18  1  0
 17 24  1  0
 20 22  2  0
 22 28  1  0
 22 29  1  0
 23 28  1  0
 24 29  2  0
M  END
>  <ID>  (1) 
conformer_0

$$$$
