
     RDKit          3D

 29 33  0  0  0  0  0  0  0  0999 V2000
   69.1691   -5.4324  -67.2069 C   0  0  0  0  0  0  0  0  0  0  0  0
   71.0119   -6.6780  -66.7788 F   0  0  0  0  0  0  0  0  0  0  0  0
   60.6647  -10.4776  -68.7157 O   0  0  0  0  0  0  0  0  0  0  0  0
   64.7911   -6.3970  -68.7010 C   0  0  0  0  0  0  0  0  0  0  0  0
   64.4246   -5.0350  -69.1889 C   0  0  0  0  0  0  0  0  0  0  0  0
   68.4022   -6.4938  -67.5549 N   0  0  0  0  0  0  0  0  0  0  0  0
   63.2602   -4.8752  -69.9276 C   0  0  0  0  0  0  0  0  0  0  0  0
   63.0620   -6.4461  -67.0906 O   0  0  0  0  0  0  0  0  0  0  0  0
   65.2271   -3.8174  -69.0995 C   0  0  0  0  0  0  0  0  0  0  0  0
   64.8023   -2.6262  -69.6791 C   0  0  0  0  0  0  0  0  0  0  0  0
   65.9712   -6.6779  -67.9484 C   0  0  0  0  0  0  0  0  0  0  0  0
   61.7379   -9.6848  -68.7539 C   0  0  0  0  0  0  0  0  0  0  0  0
   63.5806   -7.4662  -68.3789 C   0  0  0  0  0  0  0  0  0  0  0  0
   68.4976   -4.1690  -67.3646 C   0  0  0  0  0  0  0  0  0  0  0  0
   68.3998   -1.7742  -67.0992 C   0  0  0  0  0  0  0  0  0  0  0  0
   61.8230   -8.6902  -69.7380 C   0  0  0  0  0  0  0  0  0  0  0  0
   63.6559   -8.7910  -67.6096 C   0  0  0  0  0  0  0  0  0  0  0  0
   71.0781   -4.2234  -66.3993 C   0  0  0  0  0  0  0  0  0  0  0  0
   62.8130   -3.7235  -70.4829 C   0  0  0  0  0  0  0  0  0  0  0  0
   63.5595   -2.5644  -70.2996 C   0  0  0  0  0  0  0  0  0  0  0  0
   67.2715   -4.5262  -67.8751 C   0  0  0  0  0  0  0  0  0  0  0  0
   69.0832   -3.0095  -66.9962 C   0  0  0  0  0  0  0  0  0  0  0  0
   70.3670   -3.0085  -66.4871 C   0  0  0  0  0  0  0  0  0  0  0  0
   67.1369   -5.8853  -67.8527 C   0  0  0  0  0  0  0  0  0  0  0  0
   62.7263   -9.7328  -67.8085 N   0  0  0  0  0  0  0  0  0  0  0  0
   62.7421   -7.6878  -69.5606 C   0  0  0  0  0  0  0  0  0  0  0  0
   66.4253   -3.7179  -68.4188 O   0  0  0  0  0  0  0  0  0  0  0  0
   70.4442   -5.4415  -66.7787 C   0  0  0  0  0  0  0  0  0  0  0  0
   62.9479   -1.0869  -70.8512 Cl  0  0  0  0  0  0  0  0  0  0  0  0
  1  6  1  0
  1 14  2  0
  1 28  1  0
  2 28  1  0
  3 12  2  0
  4  5  1  0
  4 11  1  0
  4 13  1  0
  5  7  1  0
  5  9  1  0
  6 24  1  0
  7 19  2  0
  8 13  1  0
  9 10  2  0
  9 27  1  0
 10 20  1  0
 11 24  1  0
 12 16  1  0
 12 25  1  0
 13 17  1  0
 13 26  1  0
 14 21  1  0
 14 22  1  0
 15 22  1  0
 16 26  2  0
 17 25  2  0
 18 23  1  0
 18 28  2  0
 19 20  1  0
 20 29  1  0
 21 24  1  0
 21 27  1  0
 22 23  2  0
M  END
>  <ID>  (1) 
conformer_0

$$$$
