
     RDKit          3D

 27 30  0  0  0  0  0  0  0  0999 V2000
   60.9396  -11.2910  -69.4737 O   0  0  0  0  0  0  0  0  0  0  0  0
   68.2725   -2.8240  -67.4651 C   0  0  0  0  0  0  0  0  0  0  0  0
   60.7218   -9.7544  -67.9183 O   0  0  0  0  0  0  0  0  0  0  0  0
   61.4298  -10.2598  -68.8707 C   0  0  0  0  0  0  0  0  0  0  0  0
   62.6539   -9.6653  -69.3209 C   0  0  0  0  0  0  0  0  0  0  0  0
   63.3206   -8.5262  -68.6699 C   0  0  0  0  0  0  0  0  0  0  0  0
   63.3190   -8.2672  -67.2814 N   0  0  0  0  0  0  0  0  0  0  0  0
   64.4867   -7.7077  -66.6031 C   0  0  0  0  0  0  0  0  0  0  0  0
   64.5953   -5.5883  -67.7967 C   0  0  0  0  0  0  0  0  0  0  0  0
   66.3167   -2.5756  -68.6565 C   0  0  0  0  0  0  0  0  0  0  0  0
   63.8259   -7.3012  -69.4274 C   0  0  0  0  0  0  0  0  0  0  0  0
   66.3498   -3.9126  -68.1104 C   0  0  0  0  0  0  0  0  0  0  0  0
   65.1553   -2.5331  -69.3596 C   0  0  0  0  0  0  0  0  0  0  0  0
   65.4309   -6.7428  -67.3126 C   0  0  0  0  0  0  0  0  0  0  0  0
   70.0841   -4.1323  -66.4635 C   0  0  0  0  0  0  0  0  0  0  0  0
   69.5326   -2.8711  -66.8865 C   0  0  0  0  0  0  0  0  0  0  0  0
   67.5421   -4.0723  -67.4338 C   0  0  0  0  0  0  0  0  0  0  0  0
   65.3592   -4.6858  -68.7209 C   0  0  0  0  0  0  0  0  0  0  0  0
   71.5766   -3.9221  -66.0005 C   0  0  0  0  0  0  0  0  0  0  0  0
   63.5410  -10.4145  -70.0608 O   0  0  0  0  0  0  0  0  0  0  0  0
   63.3971   -6.0636  -68.5861 C   0  0  0  0  0  0  0  0  0  0  0  0
   70.4754   -1.8220  -66.6073 C   0  0  0  0  0  0  0  0  0  0  0  0
   71.7555   -4.0405  -64.7002 O   0  0  0  0  0  0  0  0  0  0  0  0
   67.4910   -1.9643  -68.2364 C   0  0  0  0  0  0  0  0  0  0  0  0
   71.8358   -2.4564  -66.4314 C   0  0  0  0  0  0  0  0  0  0  0  0
   64.4689   -3.7870  -69.3777 C   0  0  0  0  0  0  0  0  0  0  0  0
   72.3937   -4.8087  -66.6476 N   0  0  0  0  0  0  0  0  0  0  0  0
  1  4  2  0
  2 16  1  0
  2 17  1  0
  2 24  1  0
  3  4  1  0
  4  5  1  0
  5  6  1  0
  5 20  1  0
  6  7  1  0
  6 11  1  0
  7  8  1  0
  8 14  1  0
  9 14  1  0
  9 18  1  0
  9 21  1  0
 10 12  2  0
 10 13  1  0
 10 24  1  0
 11 21  1  0
 12 17  1  0
 12 18  1  0
 13 26  1  0
 15 16  1  0
 15 19  1  0
 16 22  1  0
 18 26  1  0
 19 23  1  0
 19 25  1  0
 19 27  1  0
 22 25  1  0
M  END
>  <ID>  (1) 
conformer_0

$$$$
