
     RDKit          3D

 24 26  0  0  0  0  0  0  0  0999 V2000
   64.0208   -6.2964  -69.6204 C   0  0  0  0  0  0  0  0  0  0  0  0
   65.7789   -5.1896  -68.4486 C   0  0  0  0  0  0  0  0  0  0  0  0
   63.6545   -8.7215  -69.3329 N   0  0  0  0  0  0  0  0  0  0  0  0
   61.4932   -9.7076  -68.9353 C   0  0  0  0  0  0  0  0  0  0  0  0
   65.5032   -2.9769  -68.9573 C   0  0  0  0  0  0  0  0  0  0  0  0
   66.7438   -2.8704  -68.8834 N   0  0  0  0  0  0  0  0  0  0  0  0
   60.9809   -9.1029  -69.8927 O   0  0  0  0  0  0  0  0  0  0  0  0
   65.1132   -6.5406  -68.6185 C   0  0  0  0  0  0  0  0  0  0  0  0
   64.7100   -6.9321  -67.2052 C   0  0  0  0  0  0  0  0  0  0  0  0
   62.9447   -9.7259  -68.7637 C   0  0  0  0  0  0  0  0  0  0  0  0
   69.5784   -1.0238  -66.6152 C   0  0  0  0  0  0  0  0  0  0  0  0
   67.5130   -3.6838  -68.1214 C   0  0  0  0  0  0  0  0  0  0  0  0
   70.5071   -1.6848  -65.9024 N   0  0  0  0  0  0  0  0  0  0  0  0
   70.5000   -3.0814  -65.9790 C   0  0  0  0  0  0  0  0  0  0  0  0
   63.6979   -8.0114  -67.0637 C   0  0  0  0  0  0  0  0  0  0  0  0
   68.6377   -1.6745  -67.3701 C   0  0  0  0  0  0  0  0  0  0  0  0
   60.7726  -10.0792  -67.9535 O   0  0  0  0  0  0  0  0  0  0  0  0
   64.8392   -4.1128  -68.3776 C   0  0  0  0  0  0  0  0  0  0  0  0
   67.0355   -4.9808  -67.9732 C   0  0  0  0  0  0  0  0  0  0  0  0
   69.5537   -3.7498  -66.7369 C   0  0  0  0  0  0  0  0  0  0  0  0
   63.4069   -7.5376  -70.1361 C   0  0  0  0  0  0  0  0  0  0  0  0
   68.6097   -3.0438  -67.3869 C   0  0  0  0  0  0  0  0  0  0  0  0
   63.9893   -9.0083  -68.1091 C   0  0  0  0  0  0  0  0  0  0  0  0
   64.4958   -3.5112  -69.4052 C   0  0  0  0  0  0  0  0  0  0  0  0
  1  8  1  0
  1 21  1  0
  2  8  1  0
  2 18  1  0
  2 19  1  0
  3 10  1  0
  3 21  1  0
  3 23  1  0
  4  7  2  0
  4 10  1  0
  4 17  1  0
  5  6  1  0
  5 24  1  0
  6 12  1  0
  8  9  1  0
  9 15  1  0
 11 13  2  0
 11 16  1  0
 12 19  2  0
 12 22  1  0
 13 14  1  0
 14 20  1  0
 15 23  1  0
 16 22  1  0
 18 24  1  0
 20 22  2  0
M  END
>  <ID>  (1) 
conformer_0

$$$$
