
     RDKit          3D

 24 26  0  0  0  0  0  0  0  0999 V2000
   63.0063   -6.6523  -68.1518 C   0  0  0  0  0  0  0  0  0  0  0  0
   65.1891   -5.2600  -67.9886 C   0  0  0  0  0  0  0  0  0  0  0  0
   63.7612   -8.9448  -68.0018 C   0  0  0  0  0  0  0  0  0  0  0  0
   61.8498   -9.6802  -69.4664 C   0  0  0  0  0  0  0  0  0  0  0  0
   69.6756   -1.3214  -66.1276 O   0  0  0  0  0  0  0  0  0  0  0  0
   61.3915   -9.7545  -70.6507 O   0  0  0  0  0  0  0  0  0  0  0  0
   67.3478   -3.6039  -67.9717 C   0  0  0  0  0  0  0  0  0  0  0  0
   63.3823   -9.2927  -69.4899 C   0  0  0  0  0  0  0  0  0  0  0  0
   65.1028   -8.1640  -67.9295 C   0  0  0  0  0  0  0  0  0  0  0  0
   64.8256   -7.2664  -66.6458 C   0  0  0  0  0  0  0  0  0  0  0  0
   65.2043   -3.1397  -69.2952 C   0  0  0  0  0  0  0  0  0  0  0  0
   66.1511   -2.8117  -68.2526 C   0  0  0  0  0  0  0  0  0  0  0  0
   64.7729   -4.5810  -69.2523 C   0  0  0  0  0  0  0  0  0  0  0  0
   67.6035   -4.9620  -67.6513 O   0  0  0  0  0  0  0  0  0  0  0  0
   68.3882   -1.5338  -66.8854 C   0  0  0  0  0  0  0  0  0  0  0  0
   62.6652   -8.0053  -67.6492 O   0  0  0  0  0  0  0  0  0  0  0  0
   63.4662   -4.7559  -70.0771 C   0  0  0  0  0  0  0  0  0  0  0  0
   64.0919   -6.0288  -67.2543 C   0  0  0  0  0  0  0  0  0  0  0  0
   70.3627   -2.6122  -66.0996 C   0  0  0  0  0  0  0  0  0  0  0  0
   64.5604   -2.2042  -70.2457 C   0  0  0  0  0  0  0  0  0  0  0  0
   61.1012  -10.1348  -68.3796 C   0  0  0  0  0  0  0  0  0  0  0  0
   68.5751   -2.7607  -67.7149 C   0  0  0  0  0  0  0  0  0  0  0  0
   66.5524   -5.8492  -67.7707 C   0  0  0  0  0  0  0  0  0  0  0  0
   69.6062   -3.5415  -66.9861 C   0  0  0  0  0  0  0  0  0  0  0  0
  1 16  1  0
  1 18  1  0
  2 13  1  0
  2 18  1  0
  2 23  1  0
  3  8  1  0
  3  9  1  0
  3 16  1  0
  4  6  2  0
  4  8  1  0
  4 21  1  0
  5 15  1  0
  5 19  1  0
  7 12  1  0
  7 14  1  0
  7 22  1  0
  9 10  1  0
 10 18  1  0
 11 12  1  0
 11 13  2  0
 11 20  1  0
 13 17  1  0
 14 23  1  0
 15 22  1  0
 19 24  1  0
 22 24  1  0
M  END
>  <ID>  (1) 
conformer_0

$$$$
