
     RDKit          3D

 28 30  0  0  0  0  0  0  0  0999 V2000
   64.1074   -5.7533  -68.4671 C   0  0  0  0  0  0  0  0  0  0  0  0
   66.4139   -5.2584  -69.1573 C   0  0  0  0  0  0  0  0  0  0  0  0
   63.8347   -8.0886  -69.2739 C   0  0  0  0  0  0  0  0  0  0  0  0
   67.2721   -4.2959  -69.4152 N   0  0  0  0  0  0  0  0  0  0  0  0
   61.9473   -9.3233  -69.8624 C   0  0  0  0  0  0  0  0  0  0  0  0
   69.1601   -3.5349  -66.7825 C   0  0  0  0  0  0  0  0  0  0  0  0
   66.1300   -2.7852  -68.0771 C   0  0  0  0  0  0  0  0  0  0  0  0
   62.5321  -10.1618  -70.9875 C   0  0  0  0  0  0  0  0  0  0  0  0
   63.1293   -5.6349  -67.7383 O   0  0  0  0  0  0  0  0  0  0  0  0
   65.1749   -4.8395  -68.6020 N   0  0  0  0  0  0  0  0  0  0  0  0
   68.0628   -4.3346  -67.2515 C   0  0  0  0  0  0  0  0  0  0  0  0
   71.1151   -2.0519  -65.4582 C   0  0  0  0  0  0  0  0  0  0  0  0
   64.5125   -6.8334  -69.3691 C   0  0  0  0  0  0  0  0  0  0  0  0
   72.8834   -5.2099  -65.9635 C   0  0  0  0  0  0  0  0  0  0  0  0
   72.6155   -3.8886  -65.5895 O   0  0  0  0  0  0  0  0  0  0  0  0
   62.4913   -7.9664  -69.9416 C   0  0  0  0  0  0  0  0  0  0  0  0
   69.8945   -1.4774  -65.7727 C   0  0  0  0  0  0  0  0  0  0  0  0
   62.2371   -9.6601  -68.3348 C   0  0  0  0  0  0  0  0  0  0  0  0
   62.3475   -7.1306  -71.1464 C   0  0  0  0  0  0  0  0  0  0  0  0
   67.2702   -3.6217  -68.2131 C   0  0  0  0  0  0  0  0  0  0  0  0
   71.4029   -3.3776  -65.8690 C   0  0  0  0  0  0  0  0  0  0  0  0
   64.9750   -3.4589  -68.6770 C   0  0  0  0  0  0  0  0  0  0  0  0
   68.9420   -2.2102  -66.4688 C   0  0  0  0  0  0  0  0  0  0  0  0
   62.8727  -10.8052  -68.1654 O   0  0  0  0  0  0  0  0  0  0  0  0
   64.5855   -8.0352  -66.8783 C   0  0  0  0  0  0  0  0  0  0  0  0
   60.9458   -9.6123  -67.8302 O   0  0  0  0  0  0  0  0  0  0  0  0
   63.3773   -8.5390  -67.8426 C   0  0  0  0  0  0  0  0  0  0  0  0
   70.4195   -4.0959  -66.5561 C   0  0  0  0  0  0  0  0  0  0  0  0
  1  9  2  0
  1 10  1  0
  1 13  1  0
  2  4  1  0
  2 10  1  0
  3 13  1  0
  3 16  1  0
  3 27  1  0
  4 20  1  0
  5  8  1  0
  5 16  1  0
  5 18  1  0
  6 11  1  0
  6 23  2  0
  6 28  1  0
  7 20  1  0
  7 22  1  0
 10 22  1  0
 11 20  1  0
 12 17  2  0
 12 21  1  0
 14 15  1  0
 15 21  1  0
 16 19  1  0
 17 23  1  0
 18 24  1  0
 18 26  1  0
 18 27  1  0
 21 28  2  0
 25 27  1  0
M  END
>  <ID>  (1) 
conformer_0

$$$$
