
     RDKit          3D

 27 31  0  0  0  0  0  0  0  0999 V2000
   65.4631   -4.3041  -68.7687 C   0  0  0  0  0  0  0  0  0  0  0  0
   67.7119   -4.6207  -67.5022 C   0  0  0  0  0  0  0  0  0  0  0  0
   64.6175   -8.2977  -66.1010 F   0  0  0  0  0  0  0  0  0  0  0  0
   66.5696   -3.7604  -68.0484 C   0  0  0  0  0  0  0  0  0  0  0  0
   63.3641   -9.6289  -68.0807 C   0  0  0  0  0  0  0  0  0  0  0  0
   63.6056   -8.1777  -68.2849 C   0  0  0  0  0  0  0  0  0  0  0  0
   67.1043   -2.4141  -68.2916 C   0  0  0  0  0  0  0  0  0  0  0  0
   64.8557   -6.1991  -67.2560 C   0  0  0  0  0  0  0  0  0  0  0  0
   64.0538   -2.3921  -70.0051 C   0  0  0  0  0  0  0  0  0  0  0  0
   62.3318   -8.2029  -70.4055 C   0  0  0  0  0  0  0  0  0  0  0  0
   64.0386   -6.0966  -69.5599 C   0  0  0  0  0  0  0  0  0  0  0  0
   62.5875   -3.5118  -71.6143 O   0  0  0  0  0  0  0  0  0  0  0  0
   65.1786   -5.7658  -68.6668 C   0  0  0  0  0  0  0  0  0  0  0  0
   62.4532   -4.5826  -70.7357 C   0  0  0  0  0  0  0  0  0  0  0  0
   69.9038   -1.3030  -66.3184 C   0  0  0  0  0  0  0  0  0  0  0  0
   64.4483   -3.6829  -69.5729 C   0  0  0  0  0  0  0  0  0  0  0  0
   68.4630   -2.1648  -67.6448 C   0  0  0  0  0  0  0  0  0  0  0  0
   63.2348   -7.3950  -69.5028 C   0  0  0  0  0  0  0  0  0  0  0  0
   61.3933   -5.1226  -70.4284 O   0  0  0  0  0  0  0  0  0  0  0  0
   69.7662   -2.6433  -65.7823 O   0  0  0  0  0  0  0  0  0  0  0  0
   62.8572   -9.6483  -70.5629 C   0  0  0  0  0  0  0  0  0  0  0  0
   63.7637   -4.8194  -70.2325 C   0  0  0  0  0  0  0  0  0  0  0  0
   62.8824   -2.2748  -70.8805 C   0  0  0  0  0  0  0  0  0  0  0  0
   68.9301   -3.4341  -66.9214 C   0  0  0  0  0  0  0  0  0  0  0  0
   62.7711  -10.3931  -69.2293 C   0  0  0  0  0  0  0  0  0  0  0  0
   64.0883   -7.4599  -67.1209 C   0  0  0  0  0  0  0  0  0  0  0  0
   61.0200   -8.2038  -70.0531 O   0  0  0  0  0  0  0  0  0  0  0  0
  1  4  1  0
  1 13  1  0
  1 16  1  0
  2  4  1  0
  2 24  1  0
  3 26  1  0
  4  7  1  0
  5  6  2  0
  5 25  1  0
  6 18  1  0
  6 26  1  0
  7 17  1  0
  8 13  1  0
  8 26  1  0
  9 16  2  0
  9 23  1  0
 10 18  1  0
 10 21  1  0
 10 27  1  0
 11 13  1  0
 11 18  1  0
 11 22  1  0
 12 14  1  0
 12 23  1  0
 14 19  2  0
 14 22  1  0
 15 20  1  0
 16 22  1  0
 17 24  1  0
 20 24  1  0
 21 25  1  0
M  END
>  <ID>  (1) 
conformer_0

$$$$
