
     RDKit          3D

 22 23  0  0  0  0  0  0  0  0999 V2000
   64.6265   -7.0912  -69.2338 C   0  0  0  0  0  0  0  0  0  0  0  0
   66.8154   -5.7021  -69.1626 C   0  0  0  0  0  0  0  0  0  0  0  0
   64.5085   -5.8210  -68.2476 C   0  0  0  0  0  0  0  0  0  0  0  0
   60.8909   -9.9193  -67.8548 N   0  0  0  0  0  0  0  0  0  0  0  0
   65.9286   -3.5536  -68.0748 C   0  0  0  0  0  0  0  0  0  0  0  0
   63.3791   -7.9115  -69.0366 C   0  0  0  0  0  0  0  0  0  0  0  0
   65.1259   -7.8571  -66.7778 C   0  0  0  0  0  0  0  0  0  0  0  0
   64.4048   -9.1744  -67.0878 C   0  0  0  0  0  0  0  0  0  0  0  0
   65.8699   -5.0746  -68.1152 C   0  0  0  0  0  0  0  0  0  0  0  0
   67.6089   -1.8578  -66.6224 C   0  0  0  0  0  0  0  0  0  0  0  0
   68.9513   -1.4924  -66.1076 C   0  0  0  0  0  0  0  0  0  0  0  0
   68.3468   -3.9916  -67.6008 C   0  0  0  0  0  0  0  0  0  0  0  0
   65.7132   -2.9572  -69.2977 O   0  0  0  0  0  0  0  0  0  0  0  0
   64.2311   -6.5505  -66.8875 C   0  0  0  0  0  0  0  0  0  0  0  0
   67.2530   -2.9692  -67.5182 C   0  0  0  0  0  0  0  0  0  0  0  0
   70.0521   -2.3292  -66.6719 C   0  0  0  0  0  0  0  0  0  0  0  0
   62.3053   -7.4859  -69.5165 O   0  0  0  0  0  0  0  0  0  0  0  0
   63.0366  -10.3964  -68.7828 C   0  0  0  0  0  0  0  0  0  0  0  0
   63.4425   -9.1133  -68.1923 C   0  0  0  0  0  0  0  0  0  0  0  0
   69.5882   -3.6908  -66.9470 C   0  0  0  0  0  0  0  0  0  0  0  0
   63.4669   -4.8748  -68.8058 C   0  0  0  0  0  0  0  0  0  0  0  0
   61.5573  -10.3472  -69.0853 C   0  0  0  0  0  0  0  0  0  0  0  0
  1  3  1  0
  1  6  1  0
  2  9  1  0
  3  9  1  0
  3 14  1  0
  3 21  1  0
  4 22  1  0
  5  9  1  0
  5 13  1  0
  5 15  1  0
  6 17  2  0
  6 19  1  0
  7  8  1  0
  7 14  1  0
  8 19  2  0
 10 11  1  0
 10 15  1  0
 11 16  1  0
 12 15  2  0
 12 20  1  0
 16 20  1  0
 18 19  1  0
 18 22  1  0
M  END
>  <ID>  (1) 
conformer_0

$$$$
