
     RDKit          3D

 33 35  0  0  0  0  0  0  0  0999 V2000
   64.5629   -7.1445  -66.8708 C   0  0  0  0  0  0  0  0  0  0  0  0
   65.8290   -7.1641  -67.6953 C   0  0  0  0  0  0  0  0  0  0  0  0
   69.0718   -2.0715  -66.7948 C   0  0  0  0  0  0  0  0  0  0  0  0
   64.2998   -4.7382  -67.0177 C   0  0  0  0  0  0  0  0  0  0  0  0
   66.4481   -5.8016  -67.7270 C   0  0  0  0  0  0  0  0  0  0  0  0
   65.5675   -3.5971  -68.6837 C   0  0  0  0  0  0  0  0  0  0  0  0
   63.7843   -8.3649  -67.2063 N   0  0  0  0  0  0  0  0  0  0  0  0
   63.5309   -6.0394  -67.0486 C   0  0  0  0  0  0  0  0  0  0  0  0
   63.8127   -4.0249  -70.2497 C   0  0  0  0  0  0  0  0  0  0  0  0
   62.3673   -8.3074  -71.4591 C   0  0  0  0  0  0  0  0  0  0  0  0
   60.6609  -10.2630  -67.8492 N   0  0  0  0  0  0  0  0  0  0  0  0
   70.9393   -3.9876  -66.2677 C   0  0  0  0  0  0  0  0  0  0  0  0
   66.6629   -2.8296  -68.2211 C   0  0  0  0  0  0  0  0  0  0  0  0
   63.6788    0.0174  -71.2695 C   0  0  0  0  0  0  0  0  0  0  0  0
   65.3912   -4.8215  -67.9700 O   0  0  0  0  0  0  0  0  0  0  0  0
   68.9352   -3.3335  -67.2945 C   0  0  0  0  0  0  0  0  0  0  0  0
   62.4537   -9.2534  -70.5624 C   0  0  0  0  0  0  0  0  0  0  0  0
   62.3894   -5.8643  -71.8566 O   0  0  0  0  0  0  0  0  0  0  0  0
   60.7133   -6.8606  -70.6670 O   0  0  0  0  0  0  0  0  0  0  0  0
   71.1259   -2.6993  -65.8057 C   0  0  0  0  0  0  0  0  0  0  0  0
   62.8496   -3.5978  -71.0959 C   0  0  0  0  0  0  0  0  0  0  0  0
   62.8233   -2.2544  -71.4699 C   0  0  0  0  0  0  0  0  0  0  0  0
   63.3936   -8.5747  -68.4766 O   0  0  0  0  0  0  0  0  0  0  0  0
   61.6748  -10.2889  -68.5553 C   0  0  0  0  0  0  0  0  0  0  0  0
   61.8647   -7.0234  -71.2981 C   0  0  0  0  0  0  0  0  0  0  0  0
   69.8396   -4.3326  -66.9903 N   0  0  0  0  0  0  0  0  0  0  0  0
   67.8333   -3.7316  -68.1644 C   0  0  0  0  0  0  0  0  0  0  0  0
   64.6620   -3.1284  -69.7099 C   0  0  0  0  0  0  0  0  0  0  0  0
   64.6904   -1.7947  -70.0645 C   0  0  0  0  0  0  0  0  0  0  0  0
   61.7823   -4.5702  -71.5925 C   0  0  0  0  0  0  0  0  0  0  0  0
   62.5070   -9.2745  -69.1573 C   0  0  0  0  0  0  0  0  0  0  0  0
   63.7307   -1.3631  -70.9302 C   0  0  0  0  0  0  0  0  0  0  0  0
   70.1890   -1.7177  -66.0812 C   0  0  0  0  0  0  0  0  0  0  0  0
  1  2  1  0
  1  7  1  0
  1  8  1  0
  2  5  1  0
  3 16  1  0
  3 33  2  0
  4  8  1  0
  4 15  1  0
  6 13  1  0
  6 15  1  0
  6 28  1  0
  7 23  1  0
  9 21  1  0
  9 28  2  0
 10 17  1  0
 10 25  1  0
 11 24  2  0
 12 20  1  0
 12 26  2  0
 13 27  1  0
 14 32  1  0
 16 26  1  0
 16 27  1  0
 17 31  1  0
 18 25  1  0
 18 30  1  0
 19 25  2  0
 20 33  1  0
 21 22  2  0
 21 30  1  0
 22 32  1  0
 23 31  1  0
 24 31  1  0
 28 29  1  0
 29 32  2  0
M  END
>  <ID>  (1) 
conformer_0

$$$$
