
     RDKit          3D

 30 34  0  0  0  0  0  0  0  0999 V2000
   65.1066   -3.0894  -68.5615 C   0  0  0  0  0  0  0  0  0  0  0  0
   68.1218   -1.8707  -67.3795 C   0  0  0  0  0  0  0  0  0  0  0  0
   63.4254   -6.3039  -67.0648 C   0  0  0  0  0  0  0  0  0  0  0  0
   63.8606   -8.5762  -67.7154 C   0  0  0  0  0  0  0  0  0  0  0  0
   61.7616   -7.4401  -71.9477 C   0  0  0  0  0  0  0  0  0  0  0  0
   62.0177   -8.3508  -70.9481 C   0  0  0  0  0  0  0  0  0  0  0  0
   62.0988   -6.1092  -71.7517 C   0  0  0  0  0  0  0  0  0  0  0  0
   67.5415   -5.1485  -69.6344 O   0  0  0  0  0  0  0  0  0  0  0  0
   61.4335   -9.3269  -68.0197 O   0  0  0  0  0  0  0  0  0  0  0  0
   70.7397   -3.9599  -66.3363 O   0  0  0  0  0  0  0  0  0  0  0  0
   63.7120   -5.9908  -68.4357 C   0  0  0  0  0  0  0  0  0  0  0  0
   64.9695   -4.1340  -69.4332 C   0  0  0  0  0  0  0  0  0  0  0  0
   68.9389   -0.9348  -66.6521 C   0  0  0  0  0  0  0  0  0  0  0  0
   64.9600   -5.3652  -68.7151 C   0  0  0  0  0  0  0  0  0  0  0  0
   66.3594   -6.9441  -67.5535 C   0  0  0  0  0  0  0  0  0  0  0  0
   69.9302   -2.9968  -66.5431 C   0  0  0  0  0  0  0  0  0  0  0  0
   68.3128   -4.2507  -67.6458 O   0  0  0  0  0  0  0  0  0  0  0  0
   67.1584   -4.5716  -68.5283 C   0  0  0  0  0  0  0  0  0  0  0  0
   66.3479   -3.3910  -68.7938 N   0  0  0  0  0  0  0  0  0  0  0  0
   70.0881   -1.6279  -66.1372 C   0  0  0  0  0  0  0  0  0  0  0  0
   68.7186   -3.0876  -67.2654 C   0  0  0  0  0  0  0  0  0  0  0  0
   66.1072   -5.4617  -67.7904 C   0  0  0  0  0  0  0  0  0  0  0  0
   71.8862   -3.8653  -65.5536 C   0  0  0  0  0  0  0  0  0  0  0  0
   63.0083   -6.6001  -69.5808 C   0  0  0  0  0  0  0  0  0  0  0  0
   62.6709   -9.1547  -68.6172 C   0  0  0  0  0  0  0  0  0  0  0  0
   62.7238   -5.7101  -70.6045 C   0  0  0  0  0  0  0  0  0  0  0  0
   62.5812   -7.9423  -69.7283 C   0  0  0  0  0  0  0  0  0  0  0  0
   63.1287  -10.4558  -69.1167 O   0  0  0  0  0  0  0  0  0  0  0  0
   65.1435   -7.8045  -67.9861 O   0  0  0  0  0  0  0  0  0  0  0  0
   64.2312   -7.5743  -66.7543 C   0  0  0  0  0  0  0  0  0  0  0  0
  1 12  1  0
  1 19  1  0
  2 13  1  0
  2 21  1  0
  3 11  1  0
  3 30  1  0
  4 25  1  0
  4 29  1  0
  4 30  1  0
  5  6  1  0
  5  7  2  0
  6 27  2  0
  7 26  1  0
  8 18  1  0
  9 25  1  0
 10 16  1  0
 10 23  1  0
 11 14  1  0
 11 24  1  0
 12 14  1  0
 13 20  1  0
 14 22  1  0
 15 22  1  0
 15 29  1  0
 16 20  1  0
 16 21  2  0
 17 18  1  0
 17 21  1  0
 18 19  1  0
 18 22  1  0
 24 26  2  0
 24 27  1  0
 25 27  1  0
 25 28  1  0
M  END
>  <ID>  (1) 
conformer_0

$$$$
