
     RDKit          3D

 37 42  0  0  0  0  0  0  0  0999 V2000
   61.8060   -4.6356  -70.9256 N   0  0  0  0  0  0  0  0  0  0  0  0
   68.6311   -2.0075  -66.2852 C   0  0  0  0  0  0  0  0  0  0  0  0
   63.4732   -8.4484  -67.0630 O   0  0  0  0  0  0  0  0  0  0  0  0
   62.1927   -8.3289  -70.6318 C   0  0  0  0  0  0  0  0  0  0  0  0
   67.6539   -3.4695  -67.9251 C   0  0  0  0  0  0  0  0  0  0  0  0
   62.3234   -0.9174  -71.4535 C   0  0  0  0  0  0  0  0  0  0  0  0
   62.3241   -3.2670  -70.9035 C   0  0  0  0  0  0  0  0  0  0  0  0
   65.1277   -5.2423  -67.6851 C   0  0  0  0  0  0  0  0  0  0  0  0
   67.4481   -4.7931  -68.2630 C   0  0  0  0  0  0  0  0  0  0  0  0
   62.9033   -9.8314  -68.8049 C   0  0  0  0  0  0  0  0  0  0  0  0
   63.5020   -3.0507  -70.2908 C   0  0  0  0  0  0  0  0  0  0  0  0
   64.1214   -6.1475  -67.4058 C   0  0  0  0  0  0  0  0  0  0  0  0
   62.5384   -8.6436  -68.1556 N   0  0  0  0  0  0  0  0  0  0  0  0
   69.8973   -2.0634  -65.5415 C   0  0  0  0  0  0  0  0  0  0  0  0
   62.6005   -5.7502  -70.6736 N   0  0  0  0  0  0  0  0  0  0  0  0
   65.6031   -2.9362  -68.8691 C   0  0  0  0  0  0  0  0  0  0  0  0
   64.4833   -7.4794  -67.2068 C   0  0  0  0  0  0  0  0  0  0  0  0
   72.8718   -3.7331  -66.2082 O   0  0  0  0  0  0  0  0  0  0  0  0
   60.4912   -6.5027  -71.0422 C   0  0  0  0  0  0  0  0  0  0  0  0
   66.8344   -2.5398  -68.4508 N   0  0  0  0  0  0  0  0  0  0  0  0
   61.7795   -9.0766  -69.4551 C   0  0  0  0  0  0  0  0  0  0  0  0
   60.6209   -9.5387  -69.2046 O   0  0  0  0  0  0  0  0  0  0  0  0
   60.5402   -5.1184  -71.1943 C   0  0  0  0  0  0  0  0  0  0  0  0
   63.5600   -0.7522  -70.8290 C   0  0  0  0  0  0  0  0  0  0  0  0
   71.8545   -3.6830  -65.4558 C   0  0  0  0  0  0  0  0  0  0  0  0
   66.4641   -5.6691  -67.7728 C   0  0  0  0  0  0  0  0  0  0  0  0
   65.7889   -7.8687  -67.1770 N   0  0  0  0  0  0  0  0  0  0  0  0
   68.6722   -3.0703  -67.1226 C   0  0  0  0  0  0  0  0  0  0  0  0
   69.8305   -3.7485  -66.9705 C   0  0  0  0  0  0  0  0  0  0  0  0
   65.3066   -1.7583  -69.5903 O   0  0  0  0  0  0  0  0  0  0  0  0
   61.7938   -6.8592  -70.7253 C   0  0  0  0  0  0  0  0  0  0  0  0
   61.7191   -2.1608  -71.4840 C   0  0  0  0  0  0  0  0  0  0  0  0
   64.1147   -1.8599  -70.2462 C   0  0  0  0  0  0  0  0  0  0  0  0
   71.8708   -4.0045  -64.2078 O   0  0  0  0  0  0  0  0  0  0  0  0
   70.5977   -3.1980  -65.9954 C   0  0  0  0  0  0  0  0  0  0  0  0
   64.8796   -3.7939  -67.9536 C   0  0  0  0  0  0  0  0  0  0  0  0
   66.7891   -6.9593  -67.3917 C   0  0  0  0  0  0  0  0  0  0  0  0
  1  7  1  0
  1 15  1  0
  1 23  1  0
  2 14  1  0
  2 28  1  0
  3 13  1  0
  3 17  1  0
  4 21  1  0
  4 31  1  0
  5  9  1  0
  5 20  1  0
  5 28  1  0
  6 24  1  0
  6 32  2  0
  7 11  2  0
  7 32  1  0
  8 12  2  0
  8 26  1  0
  8 36  1  0
  9 26  1  0
 10 13  1  0
 10 21  1  0
 11 33  1  0
 12 17  1  0
 14 35  1  0
 15 31  1  0
 16 20  1  0
 16 30  1  0
 16 36  1  0
 17 27  2  0
 18 25  2  0
 19 23  1  0
 19 31  1  0
 21 22  2  0
 24 33  2  0
 25 34  1  0
 25 35  1  0
 26 37  2  0
 27 37  1  0
 28 29  1  0
 29 35  1  0
 30 33  1  0
M  END
>  <ID>  (1) 
conformer_0

$$$$
