
     RDKit          3D

 34 41  0  0  0  0  0  0  0  0999 V2000
   65.5609   -4.7023  -70.2163 O   0  0  0  0  0  0  0  0  0  0  0  0
   66.4497   -7.8651  -67.9603 C   0  0  0  0  0  0  0  0  0  0  0  0
   65.0412   -2.6553  -68.6318 C   0  0  0  0  0  0  0  0  0  0  0  0
   64.2249   -4.8628  -69.4719 C   0  0  0  0  0  0  0  0  0  0  0  0
   67.8018   -4.5969  -67.1557 C   0  0  0  0  0  0  0  0  0  0  0  0
   64.1445   -6.2837  -68.9213 C   0  0  0  0  0  0  0  0  0  0  0  0
   65.4190   -4.8056  -67.4275 C   0  0  0  0  0  0  0  0  0  0  0  0
   63.1060   -4.6700  -70.5214 C   0  0  0  0  0  0  0  0  0  0  0  0
   62.6120  -10.6240  -70.4165 C   0  0  0  0  0  0  0  0  0  0  0  0
   71.0269   -3.1778  -65.9947 C   0  0  0  0  0  0  0  0  0  0  0  0
   70.1149   -4.1014  -66.4707 C   0  0  0  0  0  0  0  0  0  0  0  0
   64.3335   -3.9592  -68.2338 C   0  0  0  0  0  0  0  0  0  0  0  0
   61.0507  -10.6041  -68.5535 O   0  0  0  0  0  0  0  0  0  0  0  0
   62.0662   -6.9430  -71.7643 C   0  0  0  0  0  0  0  0  0  0  0  0
   65.0709   -7.8117  -67.3052 C   0  0  0  0  0  0  0  0  0  0  0  0
   62.0039   -5.7176  -70.7452 C   0  0  0  0  0  0  0  0  0  0  0  0
   63.6012   -6.0750  -66.5099 O   0  0  0  0  0  0  0  0  0  0  0  0
   72.1658   -3.5761  -65.4674 F   0  0  0  0  0  0  0  0  0  0  0  0
   66.4821   -2.7215  -68.2254 C   0  0  0  0  0  0  0  0  0  0  0  0
   63.8565   -8.4675  -67.9181 C   0  0  0  0  0  0  0  0  0  0  0  0
   66.7217   -4.2273  -68.0437 C   0  0  0  0  0  0  0  0  0  0  0  0
   63.1795   -9.7229  -68.0372 N   0  0  0  0  0  0  0  0  0  0  0  0
   62.2556  -10.3866  -68.9126 C   0  0  0  0  0  0  0  0  0  0  0  0
   62.1223   -7.9929  -69.6037 C   0  0  0  0  0  0  0  0  0  0  0  0
   63.4321   -7.5708  -69.0828 C   0  0  0  0  0  0  0  0  0  0  0  0
   62.4388   -9.5447  -71.6229 C   0  0  0  0  0  0  0  0  0  0  0  0
   64.6866   -6.2070  -67.4535 C   0  0  0  0  0  0  0  0  0  0  0  0
   61.8027   -8.2631  -71.0073 C   0  0  0  0  0  0  0  0  0  0  0  0
   70.7830   -1.8028  -66.0135 C   0  0  0  0  0  0  0  0  0  0  0  0
   68.7222   -2.2743  -67.1363 C   0  0  0  0  0  0  0  0  0  0  0  0
   67.5522   -1.8403  -67.9157 C   0  0  0  0  0  0  0  0  0  0  0  0
   68.8964   -3.6466  -66.9462 C   0  0  0  0  0  0  0  0  0  0  0  0
   66.7523   -4.8462  -69.4194 C   0  0  0  0  0  0  0  0  0  0  0  0
   69.6276   -1.3614  -66.5959 C   0  0  0  0  0  0  0  0  0  0  0  0
  1  4  1  0
  1 33  1  0
  2 15  1  0
  3 12  1  0
  3 19  1  0
  4  6  1  0
  4  8  1  0
  4 12  1  0
  5 21  1  0
  5 32  1  0
  6 25  1  0
  6 27  1  0
  7 12  1  0
  7 21  1  0
  7 27  1  0
  8 16  1  0
  9 23  1  0
  9 26  1  0
 10 11  2  0
 10 18  1  0
 10 29  1  0
 11 32  1  0
 13 23  2  0
 14 16  1  0
 14 28  1  0
 15 20  1  0
 15 27  1  0
 17 27  1  0
 19 21  1  0
 19 31  1  0
 20 22  1  0
 20 25  1  0
 21 33  1  0
 22 23  1  0
 24 25  1  0
 24 28  1  0
 26 28  1  0
 29 34  2  0
 30 31  2  0
 30 32  1  0
 30 34  1  0
M  END
>  <ID>  (1) 
conformer_0

$$$$
