
     RDKit          3D

 37 42  0  0  0  0  0  0  0  0999 V2000
   63.3032   -6.5086  -66.5973 C   0  0  0  0  0  0  0  0  0  0  0  0
   62.3069   -4.2101  -70.6540 C   0  0  0  0  0  0  0  0  0  0  0  0
   68.4004   -1.7122  -66.2769 C   0  0  0  0  0  0  0  0  0  0  0  0
   64.1174   -5.3430  -69.3109 C   0  0  0  0  0  0  0  0  0  0  0  0
   62.3050   -6.8925  -70.2733 C   0  0  0  0  0  0  0  0  0  0  0  0
   66.1633   -5.4728  -68.2875 C   0  0  0  0  0  0  0  0  0  0  0  0
   62.7930   -5.5792  -70.0180 C   0  0  0  0  0  0  0  0  0  0  0  0
   61.7081  -10.2440  -69.6835 C   0  0  0  0  0  0  0  0  0  0  0  0
   61.4153   -3.1262  -71.3322 C   0  0  0  0  0  0  0  0  0  0  0  0
   73.9842   -5.9283  -66.5520 O   0  0  0  0  0  0  0  0  0  0  0  0
   64.2999   -7.2062  -67.6334 C   0  0  0  0  0  0  0  0  0  0  0  0
   62.6062   -9.3486  -70.3802 C   0  0  0  0  0  0  0  0  0  0  0  0
   62.8555   -9.3891  -67.7752 N   0  0  0  0  0  0  0  0  0  0  0  0
   73.9582   -5.4728  -65.3451 C   0  0  0  0  0  0  0  0  0  0  0  0
   62.8272   -8.1070  -69.6480 C   0  0  0  0  0  0  0  0  0  0  0  0
   63.4975   -1.9991  -70.7083 C   0  0  0  0  0  0  0  0  0  0  0  0
   64.9283   -6.0885  -68.4613 N   0  0  0  0  0  0  0  0  0  0  0  0
   72.0791   -3.7786  -65.7454 C   0  0  0  0  0  0  0  0  0  0  0  0
   62.1135   -1.7841  -71.2545 C   0  0  0  0  0  0  0  0  0  0  0  0
   65.2351   -8.0294  -66.6907 C   0  0  0  0  0  0  0  0  0  0  0  0
   72.5861   -4.9218  -64.8811 C   0  0  0  0  0  0  0  0  0  0  0  0
   74.9220   -5.3419  -64.5812 O   0  0  0  0  0  0  0  0  0  0  0  0
   60.1596   -3.4373  -71.4688 O   0  0  0  0  0  0  0  0  0  0  0  0
   68.4069   -5.1421  -67.5234 N   0  0  0  0  0  0  0  0  0  0  0  0
   61.6224   -9.8734  -68.2707 C   0  0  0  0  0  0  0  0  0  0  0  0
   69.8410   -3.4644  -66.4950 C   0  0  0  0  0  0  0  0  0  0  0  0
   70.9152   -4.1781  -66.4492 N   0  0  0  0  0  0  0  0  0  0  0  0
   63.4884   -3.3644  -70.3507 N   0  0  0  0  0  0  0  0  0  0  0  0
   69.7351   -2.1884  -65.9917 C   0  0  0  0  0  0  0  0  0  0  0  0
   63.2787   -9.3539  -71.7520 C   0  0  0  0  0  0  0  0  0  0  0  0
   67.6917   -2.7203  -66.9903 C   0  0  0  0  0  0  0  0  0  0  0  0
   68.5248   -3.8591  -67.1031 C   0  0  0  0  0  0  0  0  0  0  0  0
   65.5341   -3.3468  -69.2525 N   0  0  0  0  0  0  0  0  0  0  0  0
   66.1172   -4.2111  -68.6704 C   0  0  0  0  0  0  0  0  0  0  0  0
   63.4889   -8.2542  -68.3859 C   0  0  0  0  0  0  0  0  0  0  0  0
   67.4395   -5.9692  -67.8455 C   0  0  0  0  0  0  0  0  0  0  0  0
   64.4910   -3.9880  -69.6103 C   0  0  0  0  0  0  0  0  0  0  0  0
  1 11  1  0
  2  7  1  0
  2  9  2  0
  2 28  1  0
  3 29  1  0
  3 31  1  0
  4  7  1  0
  4 17  1  0
  4 37  2  0
  5  7  2  0
  5 15  1  0
  6 17  1  0
  6 34  2  0
  6 36  1  0
  8 12  1  0
  8 25  1  0
  9 19  1  0
  9 23  1  0
 10 14  2  0
 11 17  1  0
 11 20  1  0
 11 35  1  0
 12 15  1  0
 12 30  1  0
 13 25  1  0
 13 35  1  0
 14 21  1  0
 14 22  1  0
 15 35  1  0
 16 19  1  0
 16 28  1  0
 18 21  1  0
 18 27  1  0
 24 32  2  3
 24 36  1  0
 26 27  2  3
 26 29  1  0
 26 32  1  0
 28 37  1  0
 31 32  1  0
 33 34  1  0
 33 37  1  0
M  END
>  <ID>  (1) 
conformer_0

$$$$
