
     RDKit          3D

 30 35  0  0  0  0  0  0  0  0999 V2000
   63.5156   -8.9211  -68.3014 C   0  0  0  0  0  0  0  0  0  0  0  0
   66.6972   -2.0961  -68.5121 C   0  0  0  0  0  0  0  0  0  0  0  0
   67.7830   -2.4247  -67.7723 C   0  0  0  0  0  0  0  0  0  0  0  0
   63.8578   -7.5605  -68.9546 C   0  0  0  0  0  0  0  0  0  0  0  0
   68.5284   -1.3531  -67.2027 C   0  0  0  0  0  0  0  0  0  0  0  0
   68.3495   -3.6207  -67.4263 C   0  0  0  0  0  0  0  0  0  0  0  0
   64.7213   -4.9673  -69.5624 O   0  0  0  0  0  0  0  0  0  0  0  0
   69.5000   -3.3558  -66.7375 N   0  0  0  0  0  0  0  0  0  0  0  0
   62.3602  -11.6690  -69.2692 O   0  0  0  0  0  0  0  0  0  0  0  0
   66.1962   -6.5892  -68.3612 C   0  0  0  0  0  0  0  0  0  0  0  0
   62.1692   -9.4099  -68.7536 C   0  0  0  0  0  0  0  0  0  0  0  0
   62.9274   -7.1221  -71.2957 O   0  0  0  0  0  0  0  0  0  0  0  0
   65.7558   -4.3474  -68.9367 C   0  0  0  0  0  0  0  0  0  0  0  0
   64.8250   -6.8858  -67.9894 C   0  0  0  0  0  0  0  0  0  0  0  0
   67.8635   -4.8690  -67.6648 C   0  0  0  0  0  0  0  0  0  0  0  0
   62.6230   -7.2454  -69.9126 C   0  0  0  0  0  0  0  0  0  0  0  0
   64.1360   -8.9220  -67.0586 N   0  0  0  0  0  0  0  0  0  0  0  0
   61.6704  -10.7681  -68.7204 C   0  0  0  0  0  0  0  0  0  0  0  0
   66.6452   -5.1882  -68.2963 C   0  0  0  0  0  0  0  0  0  0  0  0
   64.7416   -7.6662  -66.7318 C   0  0  0  0  0  0  0  0  0  0  0  0
   61.7418   -8.5314  -69.8257 N   0  0  0  0  0  0  0  0  0  0  0  0
   65.8119   -2.9886  -69.0304 C   0  0  0  0  0  0  0  0  0  0  0  0
   70.4364   -1.7603  -65.3193 C   0  0  0  0  0  0  0  0  0  0  0  0
   71.1735   -3.0309  -65.2086 C   0  0  0  0  0  0  0  0  0  0  0  0
   60.7032  -10.9858  -67.9443 O   0  0  0  0  0  0  0  0  0  0  0  0
   63.0818   -3.5680  -70.4448 C   0  0  0  0  0  0  0  0  0  0  0  0
   70.6522   -3.9068  -66.3053 C   0  0  0  0  0  0  0  0  0  0  0  0
   69.5422   -1.8733  -66.4263 C   0  0  0  0  0  0  0  0  0  0  0  0
   62.2714   -5.8212  -69.4930 O   0  0  0  0  0  0  0  0  0  0  0  0
   63.3591   -4.8127  -69.6312 C   0  0  0  0  0  0  0  0  0  0  0  0
  1  4  1  0
  1 11  1  0
  1 17  1  0
  2  3  1  0
  2 22  2  0
  3  5  1  0
  3  6  2  0
  4 14  1  0
  4 16  1  0
  5 28  1  0
  6  8  1  0
  6 15  1  0
  7 13  1  0
  7 30  1  0
  8 27  1  0
  8 28  1  0
  9 18  2  0
 10 14  1  0
 10 19  1  0
 11 18  1  0
 11 21  1  0
 12 16  1  0
 13 19  2  0
 13 22  1  0
 14 20  1  0
 15 19  1  0
 16 21  1  0
 16 29  1  0
 17 20  1  0
 18 25  1  0
 23 24  1  0
 23 28  1  0
 24 27  1  0
 26 30  1  0
 29 30  1  0
M  END
>  <ID>  (1) 
conformer_0

$$$$
