
     RDKit          3D

 19 21  0  0  0  0  0  0  0  0999 V2000
   67.8245   -1.7152  -67.5291 C   0  0  0  0  0  0  0  0  0  0  0  0
   64.8897   -2.3480  -70.0944 O   0  0  0  0  0  0  0  0  0  0  0  0
   68.3228   -3.7941  -66.4293 C   0  0  0  0  0  0  0  0  0  0  0  0
   64.7717   -3.7339  -69.8890 C   0  0  0  0  0  0  0  0  0  0  0  0
   66.5236   -3.7523  -68.0624 C   0  0  0  0  0  0  0  0  0  0  0  0
   63.7480   -7.7321  -69.2524 C   0  0  0  0  0  0  0  0  0  0  0  0
   62.2372   -9.1285  -68.3248 C   0  0  0  0  0  0  0  0  0  0  0  0
   66.8045   -2.3741  -68.2335 C   0  0  0  0  0  0  0  0  0  0  0  0
   64.6959   -6.2918  -67.1587 C   0  0  0  0  0  0  0  0  0  0  0  0
   64.9181   -5.7805  -68.4669 C   0  0  0  0  0  0  0  0  0  0  0  0
   64.4809   -6.6088  -69.4674 C   0  0  0  0  0  0  0  0  0  0  0  0
   67.3288   -4.4392  -67.1349 C   0  0  0  0  0  0  0  0  0  0  0  0
   65.4884   -4.4567  -68.7981 C   0  0  0  0  0  0  0  0  0  0  0  0
   68.5726   -2.4243  -66.6249 C   0  0  0  0  0  0  0  0  0  0  0  0
   62.3942   -9.4429  -69.5974 N   0  0  0  0  0  0  0  0  0  0  0  0
   63.3288   -8.5903  -70.1930 N   0  0  0  0  0  0  0  0  0  0  0  0
   61.1590   -9.4843  -67.6317 O   0  0  0  0  0  0  0  0  0  0  0  0
   63.9222   -7.4194  -66.9042 C   0  0  0  0  0  0  0  0  0  0  0  0
   63.2796   -8.1140  -67.9688 C   0  0  0  0  0  0  0  0  0  0  0  0
  1  8  2  0
  1 14  1  0
  2  4  1  0
  3 12  1  0
  3 14  2  0
  4 13  2  3
  5  8  1  0
  5 12  2  0
  5 13  1  0
  6 11  1  0
  6 16  1  0
  6 19  2  0
  7 15  1  0
  7 17  2  0
  7 19  1  0
  9 10  1  0
  9 18  2  0
 10 11  2  0
 10 13  1  0
 15 16  1  0
 18 19  1  0
M  END
>  <ID>  (1) 
conformer_0

$$$$
