
     RDKit          3D

 36 40  0  0  0  0  0  0  0  0999 V2000
   68.5123   -1.4759  -65.9277 C   0  0  0  0  0  0  0  0  0  0  0  0
   68.8540   -4.2286  -67.1198 C   0  0  0  0  0  0  0  0  0  0  0  0
   63.8798   -8.8096  -71.4418 C   0  0  0  0  0  0  0  0  0  0  0  0
   65.6474   -4.5577  -69.0378 C   0  0  0  0  0  0  0  0  0  0  0  0
   63.4817   -2.2828  -71.1881 O   0  0  0  0  0  0  0  0  0  0  0  0
   64.7121   -6.7887  -68.2861 C   0  0  0  0  0  0  0  0  0  0  0  0
   60.7808   -9.5686  -67.6888 O   0  0  0  0  0  0  0  0  0  0  0  0
   67.3690   -1.6738  -66.5045 C   0  0  0  0  0  0  0  0  0  0  0  0
   63.8161  -10.1661  -71.2671 C   0  0  0  0  0  0  0  0  0  0  0  0
   66.8233   -2.6882  -67.2092 C   0  0  0  0  0  0  0  0  0  0  0  0
   69.6635   -3.3664  -66.4619 C   0  0  0  0  0  0  0  0  0  0  0  0
   69.9517   -5.4223  -67.2628 C   0  0  0  0  0  0  0  0  0  0  0  0
   62.9837   -6.6571  -70.6747 C   0  0  0  0  0  0  0  0  0  0  0  0
   64.8036   -5.7422  -69.3162 C   0  0  0  0  0  0  0  0  0  0  0  0
   61.3725  -10.3063  -68.4683 C   0  0  0  0  0  0  0  0  0  0  0  0
   62.8775   -4.3338  -70.1572 C   0  0  0  0  0  0  0  0  0  0  0  0
   63.1581  -10.7007  -70.1581 C   0  0  0  0  0  0  0  0  0  0  0  0
   65.2138   -3.4308  -69.8512 C   0  0  0  0  0  0  0  0  0  0  0  0
   63.5522   -5.5579  -69.9811 N   0  0  0  0  0  0  0  0  0  0  0  0
   67.5060   -3.8107  -67.5289 C   0  0  0  0  0  0  0  0  0  0  0  0
   62.5830   -9.8587  -69.1837 C   0  0  0  0  0  0  0  0  0  0  0  0
   66.9655   -4.7611  -68.3216 N   0  0  0  0  0  0  0  0  0  0  0  0
   69.6224   -2.2015  -65.8973 C   0  0  0  0  0  0  0  0  0  0  0  0
   71.5261   -6.8621  -66.4538 O   0  0  0  0  0  0  0  0  0  0  0  0
   68.9565   -5.5063  -67.7655 N   0  0  0  0  0  0  0  0  0  0  0  0
   63.4474   -7.5684  -68.0749 C   0  0  0  0  0  0  0  0  0  0  0  0
   67.8412   -5.7589  -68.3854 N   0  0  0  0  0  0  0  0  0  0  0  0
   61.4909   -4.5197  -70.6822 C   0  0  0  0  0  0  0  0  0  0  0  0
   63.3818   -7.9931  -70.4133 C   0  0  0  0  0  0  0  0  0  0  0  0
   63.1059   -8.5126  -69.1458 C   0  0  0  0  0  0  0  0  0  0  0  0
   71.1548   -5.5785  -66.5719 C   0  0  0  0  0  0  0  0  0  0  0  0
   60.7428  -11.3416  -68.8611 O   0  0  0  0  0  0  0  0  0  0  0  0
   72.0579   -4.6383  -66.0455 C   0  0  0  0  0  0  0  0  0  0  0  0
   65.7570   -7.4386  -67.4456 C   0  0  0  0  0  0  0  0  0  0  0  0
   63.8770   -3.2965  -70.4660 C   0  0  0  0  0  0  0  0  0  0  0  0
   62.8628   -7.3817  -66.9538 O   0  0  0  0  0  0  0  0  0  0  0  0
  1  8  2  0
  1 23  1  0
  2 11  1  0
  2 20  1  0
  2 25  1  0
  3  9  2  0
  3 29  1  0
  4 14  1  0
  4 18  1  0
  4 22  1  0
  5 35  1  0
  6 14  1  0
  6 26  1  0
  6 34  1  0
  7 15  2  0
  8 10  1  0
  9 17  1  0
 10 20  2  0
 11 23  2  0
 12 25  1  0
 12 31  1  0
 13 19  1  0
 13 29  1  0
 14 19  1  0
 15 21  1  0
 15 32  1  0
 16 19  1  0
 16 28  1  0
 16 35  1  0
 17 21  1  0
 18 35  2  0
 20 22  1  0
 21 30  1  0
 22 27  1  0
 24 31  1  0
 25 27  1  0
 26 30  1  0
 26 36  2  0
 29 30  1  0
 31 33  1  0
M  END
>  <ID>  (1) 
conformer_0

$$$$
