
     RDKit          3D

 21 23  0  0  0  0  0  0  0  0999 V2000
   64.6534   -8.1333  -65.4528 O   0  0  0  0  0  0  0  0  0  0  0  0
   68.1138   -2.5167  -67.6975 C   0  0  0  0  0  0  0  0  0  0  0  0
   63.8452   -7.8935  -69.0289 C   0  0  0  0  0  0  0  0  0  0  0  0
   66.8195   -4.5012  -68.2267 C   0  0  0  0  0  0  0  0  0  0  0  0
   64.5085   -4.2938  -69.0581 C   0  0  0  0  0  0  0  0  0  0  0  0
   65.0422   -6.2672  -67.1120 C   0  0  0  0  0  0  0  0  0  0  0  0
   64.2555   -7.4800  -66.6689 C   0  0  0  0  0  0  0  0  0  0  0  0
   61.9105   -8.1724  -70.5443 S   0  0  0  0  0  0  0  0  0  0  0  0
   64.5359   -5.6485  -68.4173 C   0  0  0  0  0  0  0  0  0  0  0  0
   68.5856   -1.9460  -66.3648 C   0  0  0  0  0  0  0  0  0  0  0  0
   64.3578   -8.5269  -67.8037 C   0  0  0  0  0  0  0  0  0  0  0  0
   63.7564   -4.5177  -70.3645 C   0  0  0  0  0  0  0  0  0  0  0  0
   70.9451   -2.2041  -66.8159 C   0  0  0  0  0  0  0  0  0  0  0  0
   67.8608   -4.0292  -67.3502 C   0  0  0  0  0  0  0  0  0  0  0  0
   63.3944   -6.4549  -68.9750 C   0  0  0  0  0  0  0  0  0  0  0  0
   63.9009   -9.7601  -67.5179 O   0  0  0  0  0  0  0  0  0  0  0  0
   63.2535   -5.9305  -70.4200 C   0  0  0  0  0  0  0  0  0  0  0  0
   69.8319   -2.7717  -65.9624 C   0  0  0  0  0  0  0  0  0  0  0  0
   65.7791   -3.5693  -68.8133 C   0  0  0  0  0  0  0  0  0  0  0  0
   63.3460   -8.7419  -70.1324 C   0  0  0  0  0  0  0  0  0  0  0  0
   62.1161   -6.6719  -71.0824 C   0  0  0  0  0  0  0  0  0  0  0  0
  1  7  1  0
  2 10  1  0
  2 14  1  0
  3 11  1  0
  3 15  1  0
  3 20  1  0
  4 14  1  0
  4 19  1  0
  5  9  1  0
  5 12  1  0
  5 19  1  0
  6  7  1  0
  6  9  1  0
  7 11  1  0
  8 20  1  0
  8 21  1  0
  9 15  1  0
 10 18  1  0
 11 16  1  0
 12 17  1  0
 13 18  1  0
 15 17  1  0
 17 21  1  0
M  END
>  <ID>  (1) 
conformer_0

$$$$
