
     RDKit          3D

 26 29  0  0  0  0  0  0  0  0999 V2000
   63.7068   -8.2710  -68.2671 N   0  0  0  0  0  0  0  0  0  0  0  0
   70.6877   -2.9045  -65.8838 C   0  0  0  0  0  0  0  0  0  0  0  0
   62.9023  -10.4583  -68.9150 C   0  0  0  0  0  0  0  0  0  0  0  0
   68.2740   -2.0360  -66.9021 C   0  0  0  0  0  0  0  0  0  0  0  0
   62.9412   -7.5798  -69.4135 C   0  0  0  0  0  0  0  0  0  0  0  0
   66.7494   -4.5582  -68.1928 C   0  0  0  0  0  0  0  0  0  0  0  0
   63.2655   -6.1532  -69.8163 C   0  0  0  0  0  0  0  0  0  0  0  0
   60.8209   -9.2660  -69.3470 O   0  0  0  0  0  0  0  0  0  0  0  0
   64.9616   -7.8876  -66.4064 O   0  0  0  0  0  0  0  0  0  0  0  0
   61.4249  -10.0328  -68.6193 C   0  0  0  0  0  0  0  0  0  0  0  0
   63.8593   -9.7030  -67.8994 C   0  0  0  0  0  0  0  0  0  0  0  0
   68.0373   -4.1764  -67.9358 N   0  0  0  0  0  0  0  0  0  0  0  0
   60.8821  -10.6716  -67.7094 O   0  0  0  0  0  0  0  0  0  0  0  0
   64.4076   -5.6128  -69.0401 C   0  0  0  0  0  0  0  0  0  0  0  0
   62.7960   -4.9839  -70.6113 C   0  0  0  0  0  0  0  0  0  0  0  0
   65.9003   -3.7295  -68.8697 C   0  0  0  0  0  0  0  0  0  0  0  0
   64.6632   -7.5376  -67.5958 C   0  0  0  0  0  0  0  0  0  0  0  0
   63.5575   -3.7477  -70.0867 C   0  0  0  0  0  0  0  0  0  0  0  0
   61.8230   -5.3142  -71.4229 O   0  0  0  0  0  0  0  0  0  0  0  0
   64.6769   -4.2559  -69.3154 C   0  0  0  0  0  0  0  0  0  0  0  0
   65.1761   -6.3294  -68.1654 C   0  0  0  0  0  0  0  0  0  0  0  0
   70.2680   -1.6188  -65.5788 C   0  0  0  0  0  0  0  0  0  0  0  0
   66.4022   -5.8355  -67.8107 C   0  0  0  0  0  0  0  0  0  0  0  0
   69.0325   -1.2046  -66.0863 C   0  0  0  0  0  0  0  0  0  0  0  0
   68.7059   -3.3230  -67.1831 C   0  0  0  0  0  0  0  0  0  0  0  0
   69.9472   -3.7644  -66.6892 C   0  0  0  0  0  0  0  0  0  0  0  0
  1  5  1  0
  1 11  1  0
  1 17  1  0
  2 22  2  0
  2 26  1  0
  3 10  1  0
  3 11  1  0
  4 24  2  0
  4 25  1  0
  5  7  1  0
  6 12  1  0
  6 16  1  0
  6 23  2  0
  7 14  1  0
  7 15  2  0
  8 10  2  0
  9 17  2  0
 10 13  1  0
 12 25  1  0
 14 20  1  0
 14 21  2  0
 15 18  1  0
 15 19  1  0
 16 20  2  0
 17 21  1  0
 18 20  1  0
 21 23  1  0
 22 24  1  0
 25 26  2  0
M  END
>  <ID>  (1) 
conformer_0

$$$$
