
     RDKit          3D

 29 33  0  0  0  0  0  0  0  0999 V2000
   63.0876   -8.6670  -68.7750 C   0  0  0  0  0  0  0  0  0  0  0  0
   68.5115   -4.8809  -67.5643 O   0  0  0  0  0  0  0  0  0  0  0  0
   69.5493   -3.0802  -66.7581 N   0  0  0  0  0  0  0  0  0  0  0  0
   62.5377   -5.0452  -69.2671 O   0  0  0  0  0  0  0  0  0  0  0  0
   65.8658   -6.2393  -68.5587 C   0  0  0  0  0  0  0  0  0  0  0  0
   66.6874   -3.4758  -68.0650 C   0  0  0  0  0  0  0  0  0  0  0  0
   64.0095   -9.8028  -68.9010 C   0  0  0  0  0  0  0  0  0  0  0  0
   62.5733   -8.2430  -70.3176 C   0  0  0  0  0  0  0  0  0  0  0  0
   72.1538   -4.1754  -64.6136 O   0  0  0  0  0  0  0  0  0  0  0  0
   61.9173  -10.6291  -70.0093 C   0  0  0  0  0  0  0  0  0  0  0  0
   63.2613   -8.2028  -67.3212 N   0  0  0  0  0  0  0  0  0  0  0  0
   69.5322   -2.1591  -65.6173 C   0  0  0  0  0  0  0  0  0  0  0  0
   62.3081  -10.0066  -68.6648 C   0  0  0  0  0  0  0  0  0  0  0  0
   64.0211   -6.9657  -67.2800 C   0  0  0  0  0  0  0  0  0  0  0  0
   63.7861   -5.1425  -68.9707 C   0  0  0  0  0  0  0  0  0  0  0  0
   66.1739   -4.7362  -68.9096 C   0  0  0  0  0  0  0  0  0  0  0  0
   70.6815   -2.4053  -64.7951 C   0  0  0  0  0  0  0  0  0  0  0  0
   65.6022   -2.4010  -68.2548 C   0  0  0  0  0  0  0  0  0  0  0  0
   61.1405   -9.7732  -67.9147 O   0  0  0  0  0  0  0  0  0  0  0  0
   62.5677   -9.6277  -71.0512 C   0  0  0  0  0  0  0  0  0  0  0  0
   64.3649   -6.5092  -68.6735 C   0  0  0  0  0  0  0  0  0  0  0  0
   67.2682   -2.7496  -66.7074 C   0  0  0  0  0  0  0  0  0  0  0  0
   68.1441   -3.6268  -67.3930 C   0  0  0  0  0  0  0  0  0  0  0  0
   67.1035   -4.9306  -69.9791 O   0  0  0  0  0  0  0  0  0  0  0  0
   64.6569   -2.8421  -69.2841 C   0  0  0  0  0  0  0  0  0  0  0  0
   63.6016   -7.5116  -69.5839 C   0  0  0  0  0  0  0  0  0  0  0  0
   70.7645   -3.8126  -66.6916 C   0  0  0  0  0  0  0  0  0  0  0  0
   71.4728   -3.4642  -65.4492 C   0  0  0  0  0  0  0  0  0  0  0  0
   64.8382   -4.2720  -69.5006 C   0  0  0  0  0  0  0  0  0  0  0  0
  1  7  1  0
  1 11  1  0
  1 13  1  0
  1 26  1  0
  2 23  1  0
  3 12  1  0
  3 23  1  0
  3 27  1  0
  4 15  1  0
  5 16  1  0
  5 21  1  0
  6 16  1  0
  6 18  1  0
  6 23  1  0
  8 20  1  0
  8 26  1  0
  9 28  1  0
 10 13  1  0
 10 20  1  0
 11 14  1  0
 12 17  1  0
 13 19  1  0
 14 21  1  0
 15 21  1  0
 15 29  1  0
 16 24  1  0
 16 29  1  0
 17 28  1  0
 18 25  1  0
 21 26  1  0
 22 23  1  0
 25 29  1  0
 27 28  1  0
M  END
>  <ID>  (1) 
conformer_0

$$$$
