
     RDKit          3D

 26 29  0  0  0  0  0  0  0  0999 V2000
   68.0210   -1.4557  -65.5497 F   0  0  0  0  0  0  0  0  0  0  0  0
   66.0747   -3.4451  -68.6126 C   0  0  0  0  0  0  0  0  0  0  0  0
   64.7799   -3.5320  -69.4521 C   0  0  0  0  0  0  0  0  0  0  0  0
   67.6404   -4.8357  -67.5734 S   0  0  0  0  0  0  0  0  0  0  0  0
   69.3100   -2.9843  -66.9869 C   0  0  0  0  0  0  0  0  0  0  0  0
   71.1021   -3.2454  -65.8729 C   0  0  0  0  0  0  0  0  0  0  0  0
   62.4441  -10.6079  -69.9939 O   0  0  0  0  0  1  0  0  0  0  0  0
   67.1364   -2.6379  -68.1768 C   0  0  0  0  0  0  0  0  0  0  0  0
   63.5802   -7.1683  -68.8536 C   0  0  0  0  0  0  0  0  0  0  0  0
   70.2539   -3.9842  -66.7515 O   0  0  0  0  0  0  0  0  0  0  0  0
   63.1040   -8.4127  -68.4371 C   0  0  0  0  0  0  0  0  0  0  0  0
   64.3449   -4.9900  -69.3532 C   0  0  0  0  0  0  0  0  0  0  0  0
   63.3802   -6.0134  -69.7327 C   0  0  0  0  0  0  0  0  0  0  0  0
   61.0902   -8.4162  -70.1132 O   0  0  0  0  0  0  0  0  0  0  0  0
   69.7358   -1.7448  -67.0519 C   0  0  0  0  0  0  0  0  0  0  0  0
   61.8070   -9.3288  -69.1636 P   0  0  0  0  0  4  0  0  0  0  0  0
   65.2666   -5.6137  -68.3594 C   0  0  0  0  0  0  0  0  0  0  0  0
   70.0235   -1.4108  -64.7812 F   0  0  0  0  0  0  0  0  0  0  0  0
   69.2422   -2.1712  -65.7047 C   0  0  0  0  0  0  0  0  0  0  0  0
   64.7352   -6.8131  -67.9962 C   0  0  0  0  0  0  0  0  0  0  0  0
   66.3212   -4.7501  -68.1474 C   0  0  0  0  0  0  0  0  0  0  0  0
   60.9045   -9.8832  -68.0376 O   0  0  0  0  0  0  0  0  0  0  0  0
   68.0916   -3.4395  -67.5506 C   0  0  0  0  0  0  0  0  0  0  0  0
   63.8504   -8.8266  -67.3648 N   0  0  0  0  0  0  0  0  0  0  0  0
   68.7863   -3.2326  -64.7547 F   0  0  0  0  0  0  0  0  0  0  0  0
   64.8157   -7.8398  -67.0822 C   0  0  0  0  0  0  0  0  0  0  0  0
  1 19  1  0
  2  3  1  0
  2  8  1  0
  2 21  2  0
  3 12  1  0
  4 21  1  0
  4 23  1  0
  5 10  1  0
  5 15  1  0
  5 23  1  0
  6 10  1  0
  7 16  2  0
  8 23  1  0
  9 11  2  0
  9 13  1  0
  9 20  1  0
 11 16  1  0
 11 24  1  0
 12 13  1  0
 12 17  1  0
 14 16  1  0
 15 19  1  0
 16 22  1  0
 17 20  2  0
 17 21  1  0
 18 19  1  0
 19 25  1  0
 20 26  1  0
 24 26  1  0
M  END
>  <ID>  (1) 
conformer_0

$$$$
