
     RDKit          3D

 30 32  0  0  0  0  0  0  0  0999 V2000
   68.1391   -4.8343  -67.4784 F   0  0  0  0  0  0  0  0  0  0  0  0
   61.1117   -6.8217  -70.3453 O   0  0  0  0  0  0  0  0  0  0  0  0
   63.2102   -8.5641  -68.3732 C   0  0  0  0  0  0  0  0  0  0  0  0
   68.9530   -3.7795  -67.1034 C   0  0  0  0  0  0  0  0  0  0  0  0
   71.0131   -2.0493  -65.6982 C   0  0  0  0  0  0  0  0  0  0  0  0
   71.1520   -3.2907  -66.2174 C   0  0  0  0  0  0  0  0  0  0  0  0
   62.2890   -8.8100  -70.8134 C   0  0  0  0  0  0  0  0  0  0  0  0
   66.8331   -4.5608  -67.6777 C   0  0  0  0  0  0  0  0  0  0  0  0
   64.7707   -5.6683  -67.1824 O   0  0  0  0  0  0  0  0  0  0  0  0
   62.5783   -9.1627  -69.4836 N   0  0  0  0  0  0  0  0  0  0  0  0
   61.8594   -7.2010  -72.4628 O   0  0  0  0  0  0  0  0  0  0  0  0
   65.8611   -5.5591  -68.2099 C   0  0  0  0  0  0  0  0  0  0  0  0
   65.0606   -3.3827  -68.8235 C   0  0  0  0  0  0  0  0  0  0  0  0
   62.4768  -10.5954  -69.6524 C   0  0  0  0  0  0  0  0  0  0  0  0
   63.9462   -9.1085  -67.4042 N   0  0  0  0  0  0  0  0  0  0  0  0
   64.2159   -6.9229  -67.2733 C   0  0  0  0  0  0  0  0  0  0  0  0
   70.2163   -4.0597  -66.7301 C   0  0  0  0  0  0  0  0  0  0  0  0
   63.3141   -7.2506  -68.1851 N   0  0  0  0  0  0  0  0  0  0  0  0
   72.4733   -3.8855  -66.1696 N   0  0  0  0  0  0  0  0  0  0  0  0
   61.7910   -7.4303  -71.1863 C   0  0  0  0  0  0  0  0  0  0  0  0
   68.8197   -1.4292  -66.4262 C   0  0  0  0  0  0  0  0  0  0  0  0
   67.3224   -2.2537  -68.0504 C   0  0  0  0  0  0  0  0  0  0  0  0
   72.2049   -6.1737  -66.5610 O   0  0  0  0  0  0  0  0  0  0  0  0
   69.9653   -1.2102  -65.7584 C   0  0  0  0  0  0  0  0  0  0  0  0
   72.4460   -5.2460  -65.7256 C   0  0  0  0  0  0  0  0  0  0  0  0
   72.6131   -5.3884  -64.4627 O   0  0  0  0  0  0  0  0  0  0  0  0
   66.3077   -3.2237  -67.9792 C   0  0  0  0  0  0  0  0  0  0  0  0
   64.6036   -8.0331  -66.6989 N   0  0  0  0  0  0  0  0  0  0  0  0
   65.1781   -4.8444  -69.4192 C   0  0  0  0  0  0  0  0  0  0  0  0
   68.4152   -2.5125  -67.1465 C   0  0  0  0  0  0  0  0  0  0  0  0
  1  8  1  0
  2 20  2  0
  3 10  1  0
  3 15  2  0
  3 18  1  0
  4 17  1  0
  4 30  1  0
  5  6  1  0
  5 24  2  0
  6 17  2  0
  6 19  1  0
  7 10  1  0
  7 20  1  0
  8 12  1  0
  8 27  1  0
  9 12  1  0
  9 16  1  0
 10 14  1  0
 11 20  1  0
 12 29  1  0
 13 27  1  0
 13 29  1  0
 15 28  1  0
 16 18  2  0
 16 28  1  0
 19 25  1  0
 21 24  1  0
 21 30  1  0
 22 27  1  0
 22 30  1  0
 23 25  2  0
 25 26  1  0
M  END
>  <ID>  (1) 
conformer_0

$$$$
