
     RDKit          3D

 27 31  0  0  0  0  0  0  0  0999 V2000
   63.6716   -8.3151  -68.4260 C   0  0  0  0  0  0  0  0  0  0  0  0
   69.6679   -3.0439  -66.4520 C   0  0  0  0  0  0  0  0  0  0  0  0
   62.8098   -6.2264  -69.6022 C   0  0  0  0  0  0  0  0  0  0  0  0
   65.5287   -3.9841  -68.5561 C   0  0  0  0  0  0  0  0  0  0  0  0
   70.7223   -3.6444  -67.2428 C   0  0  0  0  0  0  0  0  0  0  0  0
   61.2656   -5.5507  -70.4515 S   0  0  0  0  0  0  0  0  0  0  0  0
   62.7659   -7.7115  -69.3268 C   0  0  0  0  0  0  0  0  0  0  0  0
   71.1365   -3.0896  -64.4199 C   0  0  0  0  0  0  0  0  0  0  0  0
   66.4494   -3.0078  -68.3308 C   0  0  0  0  0  0  0  0  0  0  0  0
   62.5730   -4.1722  -70.6586 C   0  0  0  0  0  0  0  0  0  0  0  0
   63.4806   -9.6328  -68.0399 C   0  0  0  0  0  0  0  0  0  0  0  0
   65.6257   -5.2655  -67.9702 C   0  0  0  0  0  0  0  0  0  0  0  0
   66.8021   -5.6227  -67.4475 C   0  0  0  0  0  0  0  0  0  0  0  0
   64.7748   -7.6125  -67.9876 N   0  0  0  0  0  0  0  0  0  0  0  0
   70.1727   -2.3757  -65.2696 C   0  0  0  0  0  0  0  0  0  0  0  0
   64.4180   -3.7340  -69.3560 N   0  0  0  0  0  0  0  0  0  0  0  0
   72.0624   -3.9658  -65.1143 C   0  0  0  0  0  0  0  0  0  0  0  0
   61.8279   -8.5109  -69.9709 C   0  0  0  0  0  0  0  0  0  0  0  0
   63.5026   -4.8164  -69.6045 N   0  0  0  0  0  0  0  0  0  0  0  0
   71.9231   -3.9239  -66.5528 N   0  0  0  0  0  0  0  0  0  0  0  0
   67.7648   -4.6762  -67.2588 C   0  0  0  0  0  0  0  0  0  0  0  0
   68.5910   -2.3856  -67.1786 C   0  0  0  0  0  0  0  0  0  0  0  0
   67.5791   -3.3709  -67.6100 C   0  0  0  0  0  0  0  0  0  0  0  0
   61.6404   -9.8332  -69.5935 C   0  0  0  0  0  0  0  0  0  0  0  0
   63.5407   -5.9192  -66.9034 O   0  0  0  0  0  0  0  0  0  0  0  0
   64.5172   -6.2518  -67.7370 C   0  0  0  0  0  0  0  0  0  0  0  0
   62.4455  -10.3847  -68.6050 C   0  0  0  0  0  0  0  0  0  0  0  0
  1  7  2  0
  1 11  1  0
  1 14  1  0
  2  5  1  0
  2 15  1  0
  2 22  1  0
  3  6  1  0
  3  7  1  0
  3 19  1  0
  4  9  2  0
  4 12  1  0
  4 16  1  0
  5 20  1  0
  6 10  1  0
  7 18  1  0
  8 15  1  0
  8 17  1  0
  9 23  1  0
 10 19  1  0
 11 27  2  0
 12 13  2  0
 12 26  1  0
 13 21  1  0
 14 26  1  0
 16 19  1  0
 17 20  1  0
 18 24  2  0
 21 23  2  0
 22 23  1  0
 24 27  1  0
 25 26  2  0
M  END
>  <ID>  (1) 
conformer_0

$$$$
