
     RDKit          3D

 31 34  0  0  0  0  0  0  0  0999 V2000
   64.2936   -7.0843  -65.9050 C   0  0  0  0  0  0  0  0  0  0  0  0
   61.5900   -6.6800  -71.8029 C   0  0  0  0  0  0  0  0  0  0  0  0
   63.6063   -6.1614  -68.3709 C   0  0  0  0  0  0  0  0  0  0  0  0
   63.5580   -9.0099  -67.1618 N   0  0  0  0  0  0  0  0  0  0  0  0
   64.0997   -7.6602  -67.3665 C   0  0  0  0  0  0  0  0  0  0  0  0
   64.9453   -5.5291  -68.3303 N   0  0  0  0  0  0  0  0  0  0  0  0
   66.3549   -4.6192  -69.4651 C   0  0  0  0  0  0  0  0  0  0  0  0
   62.4490   -4.7118  -70.0699 C   0  0  0  0  0  0  0  0  0  0  0  0
   67.7491   -4.9083  -68.7497 O   0  0  0  0  0  0  0  0  0  0  0  0
   67.7886   -1.7835  -66.0489 C   0  0  0  0  0  0  0  0  0  0  0  0
   62.3244   -7.0096  -70.6774 C   0  0  0  0  0  0  0  0  0  0  0  0
   63.0006   -9.6219  -68.3005 C   0  0  0  0  0  0  0  0  0  0  0  0
   70.2419   -1.7776  -65.6174 C   0  0  0  0  0  0  0  0  0  0  0  0
   65.5227   -7.8087  -67.9037 C   0  0  0  0  0  0  0  0  0  0  0  0
   65.5486   -4.1228  -68.2753 C   0  0  0  0  0  0  0  0  0  0  0  0
   66.6837   -3.3417  -67.5077 C   0  0  0  0  0  0  0  0  0  0  0  0
   67.8990   -3.8276  -67.8007 C   0  0  0  0  0  0  0  0  0  0  0  0
   69.0754   -3.3496  -67.2645 C   0  0  0  0  0  0  0  0  0  0  0  0
   60.7135  -10.3109  -68.7033 O   0  0  0  0  0  0  0  0  0  0  0  0
   69.0364   -2.3097  -66.3370 C   0  0  0  0  0  0  0  0  0  0  0  0
   62.8039   -5.9831  -69.7548 C   0  0  0  0  0  0  0  0  0  0  0  0
   62.7375   -5.7204  -67.4525 O   0  0  0  0  0  0  0  0  0  0  0  0
   66.0062   -6.4140  -67.8488 C   0  0  0  0  0  0  0  0  0  0  0  0
   71.4110   -2.1357  -66.3446 O   0  0  0  0  0  0  0  0  0  0  0  0
   61.6964   -4.3855  -71.1878 C   0  0  0  0  0  0  0  0  0  0  0  0
   62.4489   -8.5412  -70.4981 C   0  0  0  0  0  0  0  0  0  0  0  0
   67.4514   -6.1837  -68.0587 C   0  0  0  0  0  0  0  0  0  0  0  0
   61.2756   -5.3700  -72.0744 C   0  0  0  0  0  0  0  0  0  0  0  0
   66.5993   -2.2739  -66.6598 C   0  0  0  0  0  0  0  0  0  0  0  0
   63.1649   -8.9443  -69.4006 N   0  0  0  0  0  0  0  0  0  0  0  0
   61.9901  -10.6067  -68.3268 C   0  0  0  0  0  0  0  0  0  0  0  0
  1  5  1  0
  2 11  1  0
  2 28  2  0
  3  6  1  0
  3 21  1  0
  3 22  1  0
  4  5  1  0
  4 12  2  0
  5 14  1  0
  6 15  1  0
  6 23  1  0
  7 15  1  0
  8 21  2  0
  8 25  1  0
  9 17  1  0
  9 27  1  0
 10 20  1  0
 10 29  2  0
 11 21  1  0
 11 26  2  0
 12 30  1  0
 12 31  1  0
 13 20  1  0
 13 24  1  0
 14 23  1  0
 15 16  1  0
 16 17  2  0
 16 29  1  0
 17 18  1  0
 18 20  2  0
 19 31  1  0
 23 27  1  0
 25 28  1  0
 26 30  1  0
M  END
>  <ID>  (1) 
conformer_0

$$$$
