
     RDKit          3D

 38 44  0  0  0  0  0  0  0  0999 V2000
   61.8059   -3.6878  -71.1066 C   0  0  0  0  0  0  0  0  0  0  0  0
   62.2429  -10.2987  -70.0055 N   0  0  0  0  0  0  0  0  0  0  0  0
   70.0925   -1.6236  -65.8369 C   0  0  0  0  0  0  0  0  0  0  0  0
   68.9640   -0.9719  -66.2896 C   0  0  0  0  0  0  0  0  0  0  0  0
   63.2564  -10.8753  -69.1479 C   0  0  0  0  0  0  0  0  0  0  0  0
   62.3838   -7.7002  -66.7605 O   0  0  0  0  0  0  0  0  0  0  0  0
   63.2014   -6.1449  -68.2550 C   0  0  0  0  0  0  0  0  0  0  0  0
   62.7211   -4.3950  -70.3781 C   0  0  0  0  0  0  0  0  0  0  0  0
   64.7634   -7.6728  -67.3582 C   0  0  0  0  0  0  0  0  0  0  0  0
   65.1737   -9.4707  -67.8158 C   0  0  0  0  0  0  0  0  0  0  0  0
   66.7967   -6.3365  -67.2126 C   0  0  0  0  0  0  0  0  0  0  0  0
   65.2899   -8.7165  -66.6412 C   0  0  0  0  0  0  0  0  0  0  0  0
   66.2790   -4.1211  -68.9301 C   0  0  0  0  0  0  0  0  0  0  0  0
   60.5287   -4.2617  -71.5546 C   0  0  0  0  0  0  0  0  0  0  0  0
   67.2714   -7.1502  -66.1985 N   0  0  0  0  0  0  0  0  0  0  0  0
   62.1669   -2.3611  -71.4475 C   0  0  0  0  0  0  0  0  0  0  0  0
   68.9653   -5.2149  -66.9231 C   0  0  0  0  0  0  0  0  0  0  0  0
   62.0441   -8.9104  -69.6947 C   0  0  0  0  0  0  0  0  0  0  0  0
   66.6771   -3.0729  -69.0575 O   0  0  0  0  0  0  0  0  0  0  0  0
   63.8760   -9.7981  -68.3570 C   0  0  0  0  0  0  0  0  0  0  0  0
   67.2632   -3.9368  -68.1160 C   0  0  0  0  0  0  0  0  0  0  0  0
   64.2859   -2.5847  -70.3291 C   0  0  0  0  0  0  0  0  0  0  0  0
   60.0014   -3.7979  -72.6677 O   0  0  0  0  0  0  0  0  0  0  0  0
   65.5435   -6.5824  -67.8644 C   0  0  0  0  0  0  0  0  0  0  0  0
   63.3947   -1.8315  -71.0411 C   0  0  0  0  0  0  0  0  0  0  0  0
   63.9582   -3.8851  -69.9496 C   0  0  0  0  0  0  0  0  0  0  0  0
   68.2332   -3.0559  -67.3382 C   0  0  0  0  0  0  0  0  0  0  0  0
   69.8017   -6.1610  -66.8603 O   0  0  0  0  0  0  0  0  0  0  0  0
   63.1259   -8.5720  -68.8024 C   0  0  0  0  0  0  0  0  0  0  0  0
   60.9793   -8.3294  -69.8918 O   0  0  0  0  0  0  0  0  0  0  0  0
   59.8023   -5.1194  -70.6557 C   0  0  0  0  0  0  0  0  0  0  0  0
   70.2679   -2.9918  -66.1226 C   0  0  0  0  0  0  0  0  0  0  0  0
   68.0671   -1.7260  -67.0839 C   0  0  0  0  0  0  0  0  0  0  0  0
   67.6838   -5.3366  -67.6209 C   0  0  0  0  0  0  0  0  0  0  0  0
   63.2984   -7.5472  -67.7717 C   0  0  0  0  0  0  0  0  0  0  0  0
   64.9460   -4.6417  -69.1593 C   0  0  0  0  0  0  0  0  0  0  0  0
   64.5233   -5.6451  -68.2476 C   0  0  0  0  0  0  0  0  0  0  0  0
   69.2576   -3.7745  -66.7781 C   0  0  0  0  0  0  0  0  0  0  0  0
  1  8  2  0
  1 14  1  0
  1 16  1  0
  2  5  1  0
  2 18  1  0
  3  4  2  0
  3 32  1  0
  4 33  1  0
  5 20  1  0
  6 35  1  0
  7 35  1  0
  7 37  1  0
  8 26  1  0
  9 12  1  0
  9 24  1  0
  9 35  1  0
 10 12  1  0
 10 20  1  0
 11 15  1  0
 11 24  1  0
 11 34  1  0
 13 19  2  0
 13 21  1  0
 13 36  1  0
 14 23  1  0
 14 31  1  0
 16 25  1  0
 17 28  2  0
 17 34  1  0
 17 38  1  0
 18 29  1  0
 18 30  2  0
 20 29  1  0
 21 27  1  0
 21 34  1  0
 22 25  2  0
 22 26  1  0
 24 37  1  0
 26 36  1  0
 27 33  2  0
 27 38  1  0
 29 35  1  0
 32 38  2  0
 36 37  1  0
M  END
>  <ID>  (1) 
conformer_0

$$$$
