
     RDKit          3D

 35 40  0  0  0  0  0  0  0  0999 V2000
   63.2845   -8.3323  -71.0527 C   0  0  0  0  0  0  0  0  0  0  0  0
   67.5194   -3.4653  -67.7963 C   0  0  0  0  0  0  0  0  0  0  0  0
   62.1474  -10.2370  -69.9319 C   0  0  0  0  0  0  0  0  0  0  0  0
   63.4294   -9.4034  -69.9252 C   0  0  0  0  0  0  0  0  0  0  0  0
   63.7449   -7.4454  -67.7547 C   0  0  0  0  0  0  0  0  0  0  0  0
   64.9044   -7.5242  -66.7691 C   0  0  0  0  0  0  0  0  0  0  0  0
   65.6927   -3.6788  -69.3388 N   0  0  0  0  0  0  0  0  0  0  0  0
   70.4437   -1.5982  -66.2380 C   0  0  0  0  0  0  0  0  0  0  0  0
   60.7474  -10.8671  -68.0895 O   0  0  0  0  0  0  0  0  0  0  0  0
   72.5078   -4.6424  -65.6541 C   0  0  0  0  0  0  0  0  0  0  0  0
   72.1544   -3.3368  -65.9478 O   0  0  0  0  0  0  0  0  0  0  0  0
   62.9045   -3.7662  -71.5326 O   0  0  0  0  0  0  0  0  0  0  0  0
   70.9796   -2.9395  -66.2756 C   0  0  0  0  0  0  0  0  0  0  0  0
   58.0967   -3.2009  -71.1492 O   0  0  0  0  0  0  0  0  0  0  0  0
   63.0158   -7.0024  -70.2820 C   0  0  0  0  0  0  0  0  0  0  0  0
   62.7457   -6.7543  -67.1865 F   0  0  0  0  0  0  0  0  0  0  0  0
   61.3616   -4.9017  -70.3526 O   0  0  0  0  0  0  0  0  0  0  0  0
   69.8460   -3.7391  -66.8453 O   0  0  0  0  0  0  0  0  0  0  0  0
   65.4664   -4.9654  -68.9739 C   0  0  0  0  0  0  0  0  0  0  0  0
   69.0544   -1.6354  -66.8356 C   0  0  0  0  0  0  0  0  0  0  0  0
   68.7397   -2.9234  -67.2186 C   0  0  0  0  0  0  0  0  0  0  0  0
   63.5608   -5.6677  -70.6445 N   0  0  0  0  0  0  0  0  0  0  0  0
   66.2006   -5.4662  -67.8648 C   0  0  0  0  0  0  0  0  0  0  0  0
   64.5679   -5.8777  -69.6508 C   0  0  0  0  0  0  0  0  0  0  0  0
   67.2012   -4.7243  -67.4089 C   0  0  0  0  0  0  0  0  0  0  0  0
   65.9852   -6.7513  -67.0836 C   0  0  0  0  0  0  0  0  0  0  0  0
   66.6437   -2.8935  -68.7367 C   0  0  0  0  0  0  0  0  0  0  0  0
   59.8699   -4.3344  -72.1490 C   0  0  0  0  0  0  0  0  0  0  0  0
   61.8551  -10.4843  -68.5187 C   0  0  0  0  0  0  0  0  0  0  0  0
   63.4559   -8.6797  -68.5593 C   0  0  0  0  0  0  0  0  0  0  0  0
   59.9819   -5.1381  -70.8304 C   0  0  0  0  0  0  0  0  0  0  0  0
   59.4881   -2.9294  -71.6502 C   0  0  0  0  0  0  0  0  0  0  0  0
   62.6333   -9.5902  -67.7701 N   0  0  0  0  0  0  0  0  0  0  0  0
   62.6152   -4.7118  -70.8317 C   0  0  0  0  0  0  0  0  0  0  0  0
   64.1194   -7.1923  -69.0951 C   0  0  0  0  0  0  0  0  0  0  0  0
  1  4  1  0
  1 15  1  0
  2 21  1  0
  2 25  1  0
  2 27  2  0
  3  4  1  0
  3 29  1  0
  4 30  1  0
  5  6  1  0
  5 16  1  0
  5 30  1  0
  5 35  1  0
  6 26  1  0
  7 19  2  0
  7 27  1  0
  8 13  1  0
  8 20  1  0
  9 29  2  0
 10 11  1  0
 11 13  1  0
 12 34  2  0
 13 18  1  0
 14 32  1  0
 15 22  1  0
 15 35  1  0
 17 31  1  0
 17 34  1  0
 18 21  1  0
 19 23  1  0
 19 24  1  0
 20 21  1  0
 22 24  1  0
 22 34  1  0
 23 25  2  0
 23 26  1  0
 24 35  1  0
 28 31  1  0
 28 32  1  0
 29 33  1  0
 30 33  1  0
M  END
>  <ID>  (1) 
conformer_0

$$$$
