
     RDKit          3D

 35 39  0  0  0  0  0  0  0  0999 V2000
   63.4472   -7.5802  -66.8287 C   0  0  0  0  0  0  0  0  0  0  0  0
   62.8995   -3.8761  -71.1030 C   0  0  0  0  0  0  0  0  0  0  0  0
   60.0856  -11.0570  -67.9879 O   0  0  0  0  0  0  0  0  0  0  0  0
   67.5195   -5.4033  -69.4016 O   0  0  0  0  0  0  0  0  0  0  0  0
   70.3833   -2.0631  -66.0267 C   0  0  0  0  0  0  0  0  0  0  0  0
   64.0726   -1.7980  -70.9442 C   0  0  0  0  0  0  0  0  0  0  0  0
   68.2499   -3.1146  -67.5384 C   0  0  0  0  0  0  0  0  0  0  0  0
   65.6287   -8.6704  -66.6967 C   0  0  0  0  0  0  0  0  0  0  0  0
   62.5691   -9.3031  -69.3165 C   0  0  0  0  0  0  0  0  0  0  0  0
   62.9323   -7.9238  -69.3869 C   0  0  0  0  0  0  0  0  0  0  0  0
   66.6739   -5.7568  -67.2074 C   0  0  0  0  0  0  0  0  0  0  0  0
   67.0441   -3.5670  -68.1527 N   0  0  0  0  0  0  0  0  0  0  0  0
   69.1108   -3.9561  -66.8868 C   0  0  0  0  0  0  0  0  0  0  0  0
   61.3432   -6.3569  -70.1786 O   0  0  0  0  0  0  0  0  0  0  0  0
   61.7571  -11.4939  -69.6551 C   0  0  0  0  0  0  0  0  0  0  0  0
   67.8475   -0.9516  -68.2882 F   0  0  0  0  0  0  0  0  0  0  0  0
   68.5427   -1.7464  -67.4893 C   0  0  0  0  0  0  0  0  0  0  0  0
   69.5385   -1.1865  -66.6943 C   0  0  0  0  0  0  0  0  0  0  0  0
   63.5905   -5.6818  -69.6460 C   0  0  0  0  0  0  0  0  0  0  0  0
   63.0267   -7.1055  -71.7226 C   0  0  0  0  0  0  0  0  0  0  0  0
   62.6521   -6.7213  -70.2581 C   0  0  0  0  0  0  0  0  0  0  0  0
   65.5715   -3.2372  -67.9951 C   0  0  0  0  0  0  0  0  0  0  0  0
   61.2062  -10.9133  -68.4496 C   0  0  0  0  0  0  0  0  0  0  0  0
   63.6989   -7.4822  -68.2399 C   0  0  0  0  0  0  0  0  0  0  0  0
   62.6870   -2.4142  -71.0458 C   0  0  0  0  0  0  0  0  0  0  0  0
   70.1711   -3.4253  -66.1225 C   0  0  0  0  0  0  0  0  0  0  0  0
   64.3667   -6.2289  -68.5812 C   0  0  0  0  0  0  0  0  0  0  0  0
   66.8786   -5.1047  -68.3699 C   0  0  0  0  0  0  0  0  0  0  0  0
   64.8567   -3.4940  -69.3809 C   0  0  0  0  0  0  0  0  0  0  0  0
   65.6129   -5.7499  -68.0608 N   0  0  0  0  0  0  0  0  0  0  0  0
   63.7274   -4.2459  -69.9491 C   0  0  0  0  0  0  0  0  0  0  0  0
   62.3817  -10.2799  -70.3512 C   0  0  0  0  0  0  0  0  0  0  0  0
   62.0205   -9.7702  -68.1551 N   0  0  0  0  0  0  0  0  0  0  0  0
   64.8660   -7.4378  -66.1262 C   0  0  0  0  0  0  0  0  0  0  0  0
   64.5789   -1.9869  -69.6425 C   0  0  0  0  0  0  0  0  0  0  0  0
  1 24  1  0
  1 34  1  0
  2 25  1  0
  2 31  1  0
  3 23  2  0
  4 28  2  0
  5 18  2  0
  5 26  1  0
  6 25  1  0
  6 35  1  0
  7 12  1  0
  7 13  1  0
  7 17  2  0
  8 34  1  0
  9 10  1  0
  9 32  1  0
  9 33  1  0
 10 21  1  0
 10 24  1  0
 11 28  1  0
 11 30  1  0
 12 22  1  0
 12 28  1  0
 13 26  2  0
 14 21  1  0
 15 23  1  0
 15 32  1  0
 16 17  1  0
 17 18  1  0
 19 21  1  0
 19 27  1  0
 19 31  2  0
 20 21  1  0
 22 29  1  0
 23 33  1  0
 24 27  1  0
 27 30  2  0
 29 31  1  0
 29 35  1  0
M  END
>  <ID>  (1) 
conformer_0

$$$$
