
     RDKit          3D

 23 25  0  0  0  0  0  0  0  0999 V2000
   62.3658   -9.2034  -69.0420 C   0  0  0  0  0  0  0  0  0  0  0  0
   66.1278   -6.1074  -67.7406 C   0  0  0  0  0  0  0  0  0  0  0  0
   63.3399   -5.1790  -69.9856 N   0  0  0  0  0  0  0  0  0  0  0  0
   68.4424   -3.6376  -67.3813 C   0  0  0  0  0  0  0  0  0  0  0  0
   64.0108   -2.8394  -70.3321 C   0  0  0  0  0  0  0  0  0  0  0  0
   62.7578   -6.9001  -67.0804 O   0  0  0  0  0  1  0  0  0  0  0  0
   64.6909   -8.0871  -66.3281 O   0  0  0  0  0  1  0  0  0  0  0  0
   63.8302   -1.5844  -70.9164 N   0  0  0  0  0  0  0  0  0  0  0  0
   63.9245   -7.5515  -67.4624 S   0  0  0  0  0  4  0  0  0  0  0  0
   61.2265   -9.6577  -68.5974 O   0  0  0  0  0  0  0  0  0  0  0  0
   68.3084   -2.6063  -66.4428 C   0  0  0  0  0  0  0  0  0  0  0  0
   62.5727   -9.4178  -70.5185 C   0  0  0  0  0  0  0  0  0  0  0  0
   65.3130   -4.3204  -69.0210 N   0  0  0  0  0  0  0  0  0  0  0  0
   69.5721   -2.5186  -65.7633 C   0  0  0  0  0  0  0  0  0  0  0  0
   63.6504   -8.8723  -68.4264 C   0  0  0  0  0  0  0  0  0  0  0  0
   69.7546   -4.1246  -67.3119 C   0  0  0  0  0  0  0  0  0  0  0  0
   64.4080   -5.3502  -69.1303 C   0  0  0  0  0  0  0  0  0  0  0  0
   66.4455   -4.7663  -68.2629 C   0  0  0  0  0  0  0  0  0  0  0  0
   63.1543   -3.9341  -70.5483 C   0  0  0  0  0  0  0  0  0  0  0  0
   65.0926   -3.0628  -69.5305 C   0  0  0  0  0  0  0  0  0  0  0  0
   64.7933   -6.4694  -68.3235 N   0  0  0  0  0  0  0  0  0  0  0  0
   70.4315   -3.4260  -66.2914 C   0  0  0  0  0  0  0  0  0  0  0  0
   67.5160   -4.0798  -68.2106 N   0  0  0  0  0  0  0  0  0  0  0  0
  1 10  1  0
  1 12  1  0
  1 15  1  0
  2 18  1  0
  2 21  1  0
  3 17  2  0
  3 19  1  0
  4 11  1  0
  4 16  1  0
  4 23  1  0
  5  8  1  0
  5 19  1  0
  5 20  2  0
  6  9  1  0
  7  9  1  0
  9 15  1  0
  9 21  1  0
 11 14  1  0
 13 17  1  0
 13 18  1  0
 13 20  1  0
 14 22  1  0
 16 22  1  0
 17 21  1  0
 18 23  2  3
M  END
>  <ID>  (1) 
conformer_0

$$$$
