
     RDKit          3D

 26 29  0  0  0  0  0  0  0  0999 V2000
   65.5471   -5.2634  -68.2449 C   0  0  0  0  0  0  0  0  0  0  0  0
   68.7764   -3.8300  -66.9460 C   0  0  0  0  0  0  0  0  0  0  0  0
   70.9971   -2.7083  -65.6069 C   0  0  0  0  0  0  0  0  0  0  0  0
   66.8028   -5.4773  -67.6226 O   0  0  0  0  0  0  0  0  0  0  0  0
   67.4497   -4.2615  -67.4863 C   0  0  0  0  0  0  0  0  0  0  0  0
   61.5471   -4.4177  -71.7414 O   0  0  0  0  0  0  0  0  0  0  0  0
   61.2972   -5.1806  -70.6615 C   0  0  0  0  0  0  0  0  0  0  0  0
   63.5105   -5.4388  -69.3998 C   0  0  0  0  0  0  0  0  0  0  0  0
   62.2049   -9.3496  -68.8932 C   0  0  0  0  0  0  0  0  0  0  0  0
   60.0068   -5.1352  -70.2205 O   0  0  0  0  0  0  0  0  0  0  0  0
   65.3256   -3.9614  -68.6991 N   0  0  0  0  0  0  0  0  0  0  0  0
   62.8940   -8.3118  -68.1110 N   0  0  0  0  0  0  0  0  0  0  0  0
   61.4018   -8.7708  -69.8799 O   0  0  0  0  0  0  0  0  0  0  0  0
   64.0206   -4.1374  -69.5362 C   0  0  0  0  0  0  0  0  0  0  0  0
   69.9389   -4.5204  -66.8239 C   0  0  0  0  0  0  0  0  0  0  0  0
   64.1369   -7.5178  -68.0210 C   0  0  0  0  0  0  0  0  0  0  0  0
   68.8293   -2.4847  -66.5661 C   0  0  0  0  0  0  0  0  0  0  0  0
   66.5882   -3.2157  -67.8881 C   0  0  0  0  0  0  0  0  0  0  0  0
   63.3469  -10.3117  -69.5912 C   0  0  0  0  0  0  0  0  0  0  0  0
   69.8403   -1.9278  -65.8265 C   0  0  0  0  0  0  0  0  0  0  0  0
   62.2973   -5.8674  -70.0288 N   0  0  0  0  0  0  0  0  0  0  0  0
   64.6523   -7.7596  -66.3713 C   0  0  0  0  0  0  0  0  0  0  0  0
   71.0453   -4.0102  -66.1580 N   0  0  0  0  0  0  0  0  0  0  0  0
   61.3034  -10.1835  -68.1173 O   0  0  0  0  0  0  0  0  0  0  0  0
   67.4171   -1.6244  -67.1980 S   0  0  0  0  0  0  0  0  0  0  0  0
   64.4295   -6.1791  -68.5364 C   0  0  0  0  0  0  0  0  0  0  0  0
  1  4  1  0
  1 11  1  0
  1 26  1  0
  2  5  1  0
  2 15  1  0
  2 17  2  0
  3 20  2  0
  3 23  1  0
  4  5  1  0
  5 18  2  0
  6  7  2  0
  7 10  1  0
  7 21  1  0
  8 14  1  0
  8 21  2  3
  8 26  1  0
  9 12  1  0
  9 13  1  0
  9 19  1  0
  9 24  1  0
 11 14  1  0
 11 18  1  0
 12 16  1  0
 15 23  2  0
 16 22  1  0
 16 26  1  0
 17 20  1  0
 17 25  1  0
 18 25  1  0
M  END
>  <ID>  (1) 
conformer_0

$$$$
