
     RDKit          3D

 22 23  0  0  0  0  0  0  0  0999 V2000
   63.7590   -8.6885  -70.4120 C   0  0  0  0  0  0  0  0  0  0  0  0
   65.4950   -3.4553  -68.8810 C   0  0  0  0  0  0  0  0  0  0  0  0
   62.1670   -9.3302  -72.0569 O   0  0  0  0  0  0  0  0  0  0  0  0
   68.2178   -3.8123  -67.3527 C   0  0  0  0  0  0  0  0  0  0  0  0
   64.3330   -8.4653  -66.7003 C   0  0  0  0  0  0  0  0  0  0  0  0
   62.9494   -6.4669  -66.6226 O   0  0  0  0  0  0  0  0  0  0  0  0
   65.4766   -6.4608  -67.3091 C   0  0  0  0  0  0  0  0  0  0  0  0
   69.8054   -1.9123  -66.0432 C   0  0  0  0  0  0  0  0  0  0  0  0
   63.1934  -10.0578  -68.1039 O   0  0  0  0  0  0  0  0  0  0  0  0
   62.3189   -8.9450  -70.8379 C   0  0  0  0  0  0  0  0  0  0  0  0
   66.3015   -4.7296  -68.8239 C   0  0  0  0  0  0  0  0  0  0  0  0
   64.2730   -6.9132  -66.5068 C   0  0  0  0  0  0  0  0  0  0  0  0
   65.4242   -5.9405  -68.7430 C   0  0  0  0  0  0  0  0  0  0  0  0
   64.2165   -6.4640  -69.4237 C   0  0  0  0  0  0  0  0  0  0  0  0
   67.7472   -2.5317  -67.0831 C   0  0  0  0  0  0  0  0  0  0  0  0
   63.8144   -7.8851  -69.1025 C   0  0  0  0  0  0  0  0  0  0  0  0
   67.4650   -4.9010  -68.0016 C   0  0  0  0  0  0  0  0  0  0  0  0
   69.5187   -4.1089  -66.9799 C   0  0  0  0  0  0  0  0  0  0  0  0
   70.2862   -3.1460  -66.3421 C   0  0  0  0  0  0  0  0  0  0  0  0
   61.3836   -8.7035  -70.0634 O   0  0  0  0  0  0  0  0  0  0  0  0
   68.5248   -1.5796  -66.4563 C   0  0  0  0  0  0  0  0  0  0  0  0
   63.5019   -8.7487  -67.9163 C   0  0  0  0  0  0  0  0  0  0  0  0
  1 10  1  0
  1 16  1  0
  2 11  1  0
  3 10  2  0
  4 15  1  0
  4 17  1  0
  4 18  2  0
  5 12  1  0
  5 22  1  0
  6 12  1  0
  7 12  1  0
  7 13  1  0
  8 19  2  0
  8 21  1  0
  9 22  1  0
 10 20  1  0
 11 13  1  0
 11 17  1  0
 13 14  1  0
 14 16  1  0
 15 21  2  0
 16 22  1  0
 18 19  1  0
M  END
>  <ID>  (1) 
conformer_0

$$$$
