
     RDKit          3D

 36 41  0  0  0  0  0  0  0  0999 V2000
   60.5263   -2.7680  -71.4185 N   0  0  0  0  0  0  0  0  0  0  0  0
   64.5074   -8.2725  -67.2016 O   0  0  0  0  0  0  0  0  0  0  0  0
   68.3272   -4.1382  -67.6880 C   0  0  0  0  0  0  0  0  0  0  0  0
   68.4824   -5.4999  -67.6976 C   0  0  0  0  0  0  0  0  0  0  0  0
   62.2554   -5.6960  -70.0942 N   0  0  0  0  0  0  0  0  0  0  0  0
   64.0277   -6.5182  -68.7252 C   0  0  0  0  0  0  0  0  0  0  0  0
   65.1041   -5.9686  -68.2223 C   0  0  0  0  0  0  0  0  0  0  0  0
   69.1731   -3.3264  -66.9220 C   0  0  0  0  0  0  0  0  0  0  0  0
   60.6298   -4.0705  -70.9657 C   0  0  0  0  0  0  0  0  0  0  0  0
   62.9201   -3.5465  -70.3512 C   0  0  0  0  0  0  0  0  0  0  0  0
   69.4104   -1.0552  -66.2429 C   0  0  0  0  0  0  0  0  0  0  0  0
   68.7714   -2.0154  -66.9928 C   0  0  0  0  0  0  0  0  0  0  0  0
   61.6285   -1.9174  -71.3584 C   0  0  0  0  0  0  0  0  0  0  0  0
   61.8604   -4.4797  -70.4926 C   0  0  0  0  0  0  0  0  0  0  0  0
   62.9562  -10.0034  -67.9725 N   0  0  0  0  0  0  0  0  0  0  0  0
   67.6453   -1.9259  -67.8458 C   0  0  0  0  0  0  0  0  0  0  0  0
   67.3003   -3.2670  -68.2505 C   0  0  0  0  0  0  0  0  0  0  0  0
   61.7538   -9.1661  -69.7345 C   0  0  0  0  0  0  0  0  0  0  0  0
   70.2421   -3.7109  -66.2158 C   0  0  0  0  0  0  0  0  0  0  0  0
   70.4925   -1.4412  -65.4130 C   0  0  0  0  0  0  0  0  0  0  0  0
   67.3870   -6.3132  -67.5525 N   0  0  0  0  0  0  0  0  0  0  0  0
   62.8599   -2.2563  -70.8352 C   0  0  0  0  0  0  0  0  0  0  0  0
   60.8298   -9.9197  -69.3659 O   0  0  0  0  0  0  0  0  0  0  0  0
   59.4809   -4.9887  -70.9307 C   0  0  0  0  0  0  0  0  0  0  0  0
   62.8537   -8.8957  -68.8091 C   0  0  0  0  0  0  0  0  0  0  0  0
   65.0582   -1.7672  -70.0037 C   0  0  0  0  0  0  0  0  0  0  0  0
   63.4633   -5.5471  -69.4825 C   0  0  0  0  0  0  0  0  0  0  0  0
   66.3299   -3.5408  -69.1012 N   0  0  0  0  0  0  0  0  0  0  0  0
   66.1443   -5.6846  -67.3906 C   0  0  0  0  0  0  0  0  0  0  0  0
   63.9679   -4.1556  -69.6943 N   0  0  0  0  0  0  0  0  0  0  0  0
   65.0878   -3.1691  -69.5001 C   0  0  0  0  0  0  0  0  0  0  0  0
   70.9127   -2.7683  -65.4290 C   0  0  0  0  0  0  0  0  0  0  0  0
   61.7843   -8.7566  -71.0094 N   0  0  0  0  0  0  0  0  0  0  0  0
   63.9932   -1.3121  -70.8726 C   0  0  0  0  0  0  0  0  0  0  0  0
   63.7001   -7.8281  -68.3313 C   0  0  0  0  0  0  0  0  0  0  0  0
   59.7126   -6.3304  -70.7068 O   0  0  0  0  0  0  0  0  0  0  0  0
  1  9  2  0
  1 13  1  0
  2 35  1  0
  3  4  1  0
  3  8  1  0
  3 17  2  0
  4 21  2  0
  5 14  1  0
  5 27  2  0
  6  7  2  0
  6 27  1  0
  6 35  1  0
  7 29  2  0
  8 12  2  0
  8 19  1  0
  9 14  1  0
  9 24  1  0
 10 14  2  0
 10 22  1  0
 10 30  1  0
 11 12  1  0
 11 20  2  0
 12 16  1  0
 13 22  2  0
 15 25  1  0
 16 17  1  0
 17 28  1  0
 18 23  2  0
 18 25  1  0
 18 33  1  0
 19 32  2  0
 20 32  1  0
 21 29  1  0
 22 34  1  0
 24 36  1  0
 25 35  2  3
 26 31  1  0
 26 34  1  0
 27 30  1  0
 28 31  2  0
 30 31  1  0
M  END
>  <ID>  (1) 
conformer_0

$$$$
