
     RDKit          3D

 23 26  0  0  0  0  0  0  0  0999 V2000
   62.8332   -7.8652  -70.4323 C   0  0  0  0  0  0  0  0  0  0  0  0
   66.6573   -5.2758  -67.8788 C   0  0  0  0  0  0  0  0  0  0  0  0
   60.8497   -9.5978  -68.0024 O   0  0  0  0  0  0  0  0  0  0  0  0
   63.8765   -7.4437  -69.4143 C   0  0  0  0  0  0  0  0  0  0  0  0
   66.3943   -2.9044  -68.0095 N   0  0  0  0  0  0  0  0  0  0  0  0
   64.5501   -6.2260  -66.9884 C   0  0  0  0  0  0  0  0  0  0  0  0
   69.1373   -1.3154  -66.2029 C   0  0  0  0  0  0  0  0  0  0  0  0
   65.0166   -6.4979  -69.3383 C   0  0  0  0  0  0  0  0  0  0  0  0
   65.6532   -6.4511  -67.9852 C   0  0  0  0  0  0  0  0  0  0  0  0
   63.9468   -8.2055  -68.1965 C   0  0  0  0  0  0  0  0  0  0  0  0
   68.3853   -3.8476  -67.1315 C   0  0  0  0  0  0  0  0  0  0  0  0
   64.8408   -7.6348  -67.2282 C   0  0  0  0  0  0  0  0  0  0  0  0
   62.1475  -10.3219  -70.8530 O   0  0  0  0  0  0  0  0  0  0  0  0
   66.0150   -4.0971  -68.4308 C   0  0  0  0  0  0  0  0  0  0  0  0
   67.5601   -2.7482  -67.2985 C   0  0  0  0  0  0  0  0  0  0  0  0
   63.2454   -9.4615  -68.1075 C   0  0  0  0  0  0  0  0  0  0  0  0
   70.0526   -2.3361  -66.1244 C   0  0  0  0  0  0  0  0  0  0  0  0
   70.6207   -4.5833  -66.6400 N   0  0  0  0  0  0  0  0  0  0  0  0
   61.9052   -9.3850  -68.7208 C   0  0  0  0  0  0  0  0  0  0  0  0
   67.9216   -5.1280  -67.4476 N   0  0  0  0  0  0  0  0  0  0  0  0
   61.9530   -9.0832  -70.1521 C   0  0  0  0  0  0  0  0  0  0  0  0
   69.7192   -3.6110  -66.6138 C   0  0  0  0  0  0  0  0  0  0  0  0
   67.9189   -1.4879  -66.8235 C   0  0  0  0  0  0  0  0  0  0  0  0
  1  4  1  0
  1 21  1  0
  2  9  1  0
  2 14  1  0
  2 20  1  0
  3 19  1  0
  4  8  1  0
  4 10  2  0
  5 14  2  0
  5 15  1  0
  6  9  1  0
  6 12  1  0
  7 17  2  0
  7 23  1  0
  8  9  1  0
 10 12  1  0
 10 16  1  0
 11 15  1  0
 11 20  2  0
 11 22  1  0
 13 21  1  0
 15 23  2  0
 16 19  1  0
 17 22  1  0
 18 22  2  0
 19 21  1  0
M  END
>  <ID>  (1) 
conformer_0

$$$$
