
     RDKit          3D

 28 30  0  0  0  0  0  0  0  0999 V2000
   69.9092   -3.0217  -66.3960 C   0  0  0  0  0  0  0  0  0  0  0  0
   63.2601   -4.7771  -69.7692 C   0  0  0  0  0  0  0  0  0  0  0  0
   69.1160   -3.9464  -67.0997 C   0  0  0  0  0  0  0  0  0  0  0  0
   62.4194   -9.8427  -70.3681 C   0  0  0  0  0  0  0  0  0  0  0  0
   68.1583   -1.3998  -66.7091 C   0  0  0  0  0  0  0  0  0  0  0  0
   67.5006   -5.9801  -67.9504 O   0  0  0  0  0  0  0  0  0  0  0  0
   63.6301   -5.6221  -68.6581 C   0  0  0  0  0  0  0  0  0  0  0  0
   62.3271   -5.1802  -70.5741 N   0  0  0  0  0  0  0  0  0  0  0  0
   64.9036   -5.5451  -68.2677 C   0  0  0  0  0  0  0  0  0  0  0  0
   67.3476   -2.3592  -67.3603 C   0  0  0  0  0  0  0  0  0  0  0  0
   64.4798   -9.6290  -68.4592 C   0  0  0  0  0  0  0  0  0  0  0  0
   60.5717   -6.5378  -70.7126 O   0  0  0  0  0  0  0  0  0  0  0  0
   64.6291  -10.4300  -69.5572 C   0  0  0  0  0  0  0  0  0  0  0  0
   67.1139   -4.7662  -68.0865 C   0  0  0  0  0  0  0  0  0  0  0  0
   61.1484   -5.4347  -71.0029 C   0  0  0  0  0  0  0  0  0  0  0  0
   64.3844   -7.8555  -66.3447 C   0  0  0  0  0  0  0  0  0  0  0  0
   65.3249   -3.5457  -69.4441 C   0  0  0  0  0  0  0  0  0  0  0  0
   63.2930   -7.7530  -67.3867 N   0  0  0  0  0  0  0  0  0  0  0  0
   60.5832   -4.3837  -71.9190 C   0  0  0  0  0  0  0  0  0  0  0  0
   62.7376   -6.5052  -67.8526 C   0  0  0  0  0  0  0  0  0  0  0  0
   67.8279   -3.6658  -67.5318 C   0  0  0  0  0  0  0  0  0  0  0  0
   65.7723   -4.5682  -68.6052 C   0  0  0  0  0  0  0  0  0  0  0  0
   64.0772   -3.6530  -70.0094 C   0  0  0  0  0  0  0  0  0  0  0  0
   63.6326  -10.5044  -70.5300 C   0  0  0  0  0  0  0  0  0  0  0  0
   69.4099   -1.7534  -66.1947 C   0  0  0  0  0  0  0  0  0  0  0  0
   62.2087   -9.1402  -69.1606 C   0  0  0  0  0  0  0  0  0  0  0  0
   63.3273   -8.8761  -68.3026 C   0  0  0  0  0  0  0  0  0  0  0  0
   60.9377   -8.7623  -68.7864 O   0  0  0  0  0  0  0  0  0  0  0  0
  1  3  2  0
  1 25  1  0
  2  7  1  0
  2  8  1  0
  2 23  1  0
  3 21  1  0
  4 24  1  0
  4 26  2  0
  5 10  1  0
  5 25  2  0
  6 14  2  0
  7  9  1  0
  7 20  1  0
  8 15  1  0
  9 22  2  0
 10 21  2  0
 11 13  2  0
 11 27  1  0
 12 15  2  0
 13 24  1  0
 14 21  1  0
 14 22  1  0
 15 19  1  0
 16 18  1  0
 17 22  1  0
 17 23  2  0
 18 20  1  0
 18 27  1  0
 26 27  1  0
 26 28  1  0
M  END
>  <ID>  (1) 
conformer_0

$$$$
