
     RDKit          3D

 27 31  0  0  0  0  0  0  0  0999 V2000
   66.9542   -2.3573  -67.4564 C   0  0  0  0  0  0  0  0  0  0  0  0
   67.2209   -3.7252  -67.5564 C   0  0  0  0  0  0  0  0  0  0  0  0
   72.0363   -5.0799  -66.1912 C   0  0  0  0  0  0  0  0  0  0  0  0
   65.2068   -6.6567  -67.6438 C   0  0  0  0  0  0  0  0  0  0  0  0
   60.8105   -9.2343  -68.3092 O   0  0  0  0  0  0  0  0  0  0  0  0
   60.5899   -7.5308  -70.7122 O   0  0  0  0  0  0  0  0  0  0  0  0
   64.5384   -7.9789  -67.1294 C   0  0  0  0  0  0  0  0  0  0  0  0
   61.6919   -9.3267  -69.5083 C   0  0  0  0  0  0  0  0  0  0  0  0
   68.2064   -1.6896  -66.9411 C   0  0  0  0  0  0  0  0  0  0  0  0
   66.2593   -4.7881  -67.9151 C   0  0  0  0  0  0  0  0  0  0  0  0
   63.7205   -8.9427  -68.1176 C   0  0  0  0  0  0  0  0  0  0  0  0
   64.1712   -8.4087  -69.4390 O   0  0  0  0  0  0  0  0  0  0  0  0
   61.3280   -5.3090  -71.9441 O   0  0  0  0  0  0  0  0  0  0  0  0
   73.0637   -5.6928  -66.7198 N   0  0  0  0  0  0  0  0  0  0  0  0
   70.5745   -3.0692  -66.2672 C   0  0  0  0  0  0  0  0  0  0  0  0
   64.8175   -6.1444  -68.8247 N   0  0  0  0  0  0  0  0  0  0  0  0
   62.2966   -5.4679  -70.9135 C   0  0  0  0  0  0  0  0  0  0  0  0
   70.8012   -4.4618  -66.5269 C   0  0  0  0  0  0  0  0  0  0  0  0
   64.0251   -6.9819  -69.6913 C   0  0  0  0  0  0  0  0  0  0  0  0
   65.4699   -4.9175  -68.9770 C   0  0  0  0  0  0  0  0  0  0  0  0
   69.2231   -2.6935  -66.7133 C   0  0  0  0  0  0  0  0  0  0  0  0
   68.5610   -3.9578  -67.1554 C   0  0  0  0  0  0  0  0  0  0  0  0
   62.8716   -6.7941  -70.6380 C   0  0  0  0  0  0  0  0  0  0  0  0
   66.1438   -5.8412  -67.1281 N   0  0  0  0  0  0  0  0  0  0  0  0
   61.8682   -8.0225  -70.4185 C   0  0  0  0  0  0  0  0  0  0  0  0
   69.5064   -5.0075  -67.1099 C   0  0  0  0  0  0  0  0  0  0  0  0
   62.8595  -10.1800  -68.7869 C   0  0  0  0  0  0  0  0  0  0  0  0
  1  2  1  0
  1  9  1  0
  2 10  1  0
  2 22  2  0
  3 14  2  0
  3 18  1  0
  4  7  1  0
  4 16  1  0
  4 24  2  0
  5  8  1  0
  6 25  1  0
  7 11  2  0
  8 25  1  0
  8 27  1  0
  9 21  1  0
 10 20  1  0
 10 24  1  0
 11 12  1  0
 11 27  1  0
 12 19  1  0
 13 17  1  0
 15 18  1  0
 15 21  1  0
 16 19  1  0
 16 20  1  0
 17 23  1  0
 18 26  1  0
 19 23  1  0
 21 22  1  0
 22 26  1  0
 23 25  1  0
M  END
>  <ID>  (1) 
conformer_0

$$$$
