
     RDKit          3D

 35 39  0  0  0  0  0  0  0  0999 V2000
   64.3143   -6.0974  -68.8161 C   0  0  0  0  0  0  0  0  0  0  0  0
   67.9955   -2.3106  -67.7205 C   0  0  0  0  0  0  0  0  0  0  0  0
   66.5850   -7.0082  -67.1730 C   0  0  0  0  0  0  0  0  0  0  0  0
   63.4442   -4.3487  -70.1885 C   0  0  0  0  0  0  0  0  0  0  0  0
   69.6895   -0.6575  -67.1482 C   0  0  0  0  0  0  0  0  0  0  0  0
   66.5123   -5.6266  -67.7418 C   0  0  0  0  0  0  0  0  0  0  0  0
   72.1193   -4.2625  -65.7964 C   0  0  0  0  0  0  0  0  0  0  0  0
   71.6807   -3.4000  -64.7793 O   0  0  0  0  0  0  0  0  0  0  0  0
   65.3750   -5.1641  -68.5334 C   0  0  0  0  0  0  0  0  0  0  0  0
   62.3038   -8.0538  -69.4959 C   0  0  0  0  0  0  0  0  0  0  0  0
   65.3602   -3.6771  -68.7158 C   0  0  0  0  0  0  0  0  0  0  0  0
   65.3429   -7.7714  -67.2235 C   0  0  0  0  0  0  0  0  0  0  0  0
   67.7919   -3.7161  -67.5984 C   0  0  0  0  0  0  0  0  0  0  0  0
   63.0673   -5.6057  -69.4605 C   0  0  0  0  0  0  0  0  0  0  0  0
   61.2635   -8.9630  -69.6380 O   0  0  0  0  0  0  0  0  0  0  0  0
   63.6455   -9.5941  -68.2241 O   0  0  0  0  0  0  0  0  0  0  0  0
   64.1732   -7.2709  -67.9999 C   0  0  0  0  0  0  0  0  0  0  0  0
   70.0737   -3.9948  -67.2547 C   0  0  0  0  0  0  0  0  0  0  0  0
   68.9408   -1.8261  -66.6488 C   0  0  0  0  0  0  0  0  0  0  0  0
   71.1980   -4.8214  -66.7543 C   0  0  0  0  0  0  0  0  0  0  0  0
   60.9228   -6.4455  -70.5627 O   0  0  0  0  0  0  0  0  0  0  0  0
   65.2958   -2.8452  -67.3819 C   0  0  0  0  0  0  0  0  0  0  0  0
   67.6770   -4.8261  -68.3065 C   0  0  0  0  0  0  0  0  0  0  0  0
   73.2295   -4.8300  -65.6604 O   0  0  0  0  0  0  0  0  0  0  0  0
   62.1658   -6.6737  -70.0301 C   0  0  0  0  0  0  0  0  0  0  0  0
   68.1039   -1.4625  -65.3935 C   0  0  0  0  0  0  0  0  0  0  0  0
   67.9753   -5.1520  -69.6811 C   0  0  0  0  0  0  0  0  0  0  0  0
   62.3679   -3.9158  -71.0629 C   0  0  0  0  0  0  0  0  0  0  0  0
   69.8965   -2.9281  -66.3045 C   0  0  0  0  0  0  0  0  0  0  0  0
   64.8915   -8.4787  -66.1475 O   0  0  0  0  0  0  0  0  0  0  0  0
   70.6664   -2.5592  -65.0965 C   0  0  0  0  0  0  0  0  0  0  0  0
   64.1845   -3.2774  -69.5624 C   0  0  0  0  0  0  0  0  0  0  0  0
   69.0867   -6.2727  -67.0099 C   0  0  0  0  0  0  0  0  0  0  0  0
   68.8547   -4.8070  -67.4638 C   0  0  0  0  0  0  0  0  0  0  0  0
   63.0990   -8.2884  -68.2110 C   0  0  0  0  0  0  0  0  0  0  0  0
  1  9  1  0
  1 14  1  0
  1 17  1  0
  2 13  1  0
  2 19  1  0
  3  6  1  0
  3 12  1  0
  4 14  1  0
  4 28  1  0
  4 32  1  0
  5 19  1  0
  6  9  1  0
  6 23  1  0
  7  8  1  0
  7 20  1  0
  7 24  2  0
  8 31  1  0
  9 11  1  0
 10 15  1  0
 10 25  1  0
 10 35  1  0
 11 22  1  0
 11 32  1  0
 12 17  1  0
 12 30  1  0
 13 23  1  0
 14 25  1  0
 16 35  1  0
 17 35  1  0
 18 20  1  0
 18 29  1  0
 18 34  1  0
 19 26  1  0
 19 29  1  0
 21 25  1  0
 23 27  1  0
 23 34  1  0
 29 31  2  0
 33 34  1  0
M  END
>  <ID>  (1) 
conformer_0

$$$$
