
     RDKit          3D

 25 28  0  0  0  0  0  0  0  0999 V2000
   64.3821   -9.7112  -68.4256 C   0  0  0  0  0  0  0  0  0  0  0  0
   63.3381  -10.5031  -67.9517 N   0  0  0  0  0  0  0  0  0  0  0  0
   66.1770   -4.2708  -68.4209 C   0  0  0  0  0  0  0  0  0  0  0  0
   63.3690   -7.0128  -66.5595 O   0  0  0  0  0  0  0  0  0  0  0  0
   63.1440   -4.4028  -70.4041 C   0  0  0  0  0  0  0  0  0  0  0  0
   64.3636   -5.6336  -68.9779 C   0  0  0  0  0  0  0  0  0  0  0  0
   62.4118   -6.7772  -70.0321 C   0  0  0  0  0  0  0  0  0  0  0  0
   66.3490   -5.5980  -67.7448 C   0  0  0  0  0  0  0  0  0  0  0  0
   67.0426   -3.1827  -68.5732 C   0  0  0  0  0  0  0  0  0  0  0  0
   64.2773   -3.5526  -69.9939 C   0  0  0  0  0  0  0  0  0  0  0  0
   65.0151   -4.3703  -69.1303 C   0  0  0  0  0  0  0  0  0  0  0  0
   63.2275   -5.6631  -69.8006 C   0  0  0  0  0  0  0  0  0  0  0  0
   61.2563   -6.7286  -70.6973 N   0  0  0  0  0  0  0  0  0  0  0  0
   68.9428   -1.5333  -65.8928 C   0  0  0  0  0  0  0  0  0  0  0  0
   61.7105   -8.8959  -69.4254 O   0  0  0  0  0  0  0  0  0  0  0  0
   60.3429   -5.6286  -70.5872 O   0  0  0  0  0  0  0  0  0  0  0  0
   69.0878   -3.8515  -67.3798 C   0  0  0  0  0  0  0  0  0  0  0  0
   68.0157   -2.9698  -67.5607 C   0  0  0  0  0  0  0  0  0  0  0  0
   70.0290   -2.3539  -65.7609 C   0  0  0  0  0  0  0  0  0  0  0  0
   62.6823   -7.9991  -69.3285 C   0  0  0  0  0  0  0  0  0  0  0  0
   65.1587   -6.3680  -68.0546 C   0  0  0  0  0  0  0  0  0  0  0  0
   63.9295   -8.2947  -68.5885 C   0  0  0  0  0  0  0  0  0  0  0  0
   70.1148   -3.5232  -66.4877 C   0  0  0  0  0  0  0  0  0  0  0  0
   64.4512   -7.4968  -67.3844 C   0  0  0  0  0  0  0  0  0  0  0  0
   67.9422   -1.8031  -66.8204 C   0  0  0  0  0  0  0  0  0  0  0  0
  1  2  1  0
  1 22  1  0
  3  8  1  0
  3  9  1  0
  3 11  2  0
  4 24  1  0
  5 10  1  0
  5 12  1  0
  6 11  1  0
  6 12  2  0
  6 21  1  0
  7 12  1  0
  7 13  1  0
  7 20  2  0
  8 21  1  0
  9 18  1  0
 10 11  1  0
 13 16  1  0
 14 19  2  0
 14 25  1  0
 15 20  1  0
 17 18  1  0
 17 23  2  0
 18 25  2  0
 19 23  1  0
 20 22  1  0
 21 24  1  0
 22 24  1  0
M  END
>  <ID>  (1) 
conformer_0

$$$$
