
     RDKit          3D

 31 35  0  0  0  0  0  0  0  0999 V2000
   63.4765   -9.0890  -67.4948 N   0  0  0  0  0  0  0  0  0  0  0  0
   67.6980   -5.6760  -67.7822 O   0  0  0  0  0  0  0  0  0  0  0  0
   66.3607   -2.5118  -68.6326 C   0  0  0  0  0  0  0  0  0  0  0  0
   64.5107   -6.9023  -68.7333 C   0  0  0  0  0  0  0  0  0  0  0  0
   64.3707   -8.3116  -66.7260 C   0  0  0  0  0  0  0  0  0  0  0  0
   63.8512   -4.7244  -70.0825 C   0  0  0  0  0  0  0  0  0  0  0  0
   64.4270   -3.4113  -70.0971 N   0  0  0  0  0  0  0  0  0  0  0  0
   60.5211   -3.7538  -71.4257 C   0  0  0  0  0  0  0  0  0  0  0  0
   71.9168   -3.1640  -65.9757 O   0  0  0  0  0  0  0  0  0  0  0  0
   67.0025   -4.6414  -68.1376 C   0  0  0  0  0  0  0  0  0  0  0  0
   62.4704   -4.8133  -70.5053 C   0  0  0  0  0  0  0  0  0  0  0  0
   60.8367   -9.6175  -67.8747 O   0  0  0  0  0  0  0  0  0  0  0  0
   61.6820   -5.9551  -70.4126 C   0  0  0  0  0  0  0  0  0  0  0  0
   69.9951   -1.5914  -66.0083 C   0  0  0  0  0  0  0  0  0  0  0  0
   62.9703   -9.0840  -68.9265 C   0  0  0  0  0  0  0  0  0  0  0  0
   72.3147   -4.3853  -65.3716 C   0  0  0  0  0  0  0  0  0  0  0  0
   65.1611   -7.3342  -67.5002 C   0  0  0  0  0  0  0  0  0  0  0  0
   65.4599   -3.3827  -69.2270 C   0  0  0  0  0  0  0  0  0  0  0  0
   70.6420   -2.8456  -66.2808 C   0  0  0  0  0  0  0  0  0  0  0  0
   68.6618   -1.6356  -66.6347 C   0  0  0  0  0  0  0  0  0  0  0  0
   61.8628   -3.7015  -71.0752 C   0  0  0  0  0  0  0  0  0  0  0  0
   65.7501   -4.7356  -68.8270 C   0  0  0  0  0  0  0  0  0  0  0  0
   59.7406   -4.9134  -71.2614 C   0  0  0  0  0  0  0  0  0  0  0  0
   67.3563   -3.2772  -67.9406 C   0  0  0  0  0  0  0  0  0  0  0  0
   63.5578   -7.7537  -69.4215 C   0  0  0  0  0  0  0  0  0  0  0  0
   69.6618   -3.6211  -67.0084 O   0  0  0  0  0  0  0  0  0  0  0  0
   68.4722   -2.8679  -67.2463 C   0  0  0  0  0  0  0  0  0  0  0  0
   72.2470   -5.6145  -66.3302 C   0  0  0  0  0  0  0  0  0  0  0  0
   60.3541   -6.0327  -70.7351 C   0  0  0  0  0  0  0  0  0  0  0  0
   61.8125  -10.1995  -68.8081 C   0  0  0  0  0  0  0  0  0  0  0  0
   64.6801   -5.5476  -69.2378 N   0  0  0  0  0  0  0  0  0  0  0  0
  1  5  1  0
  1 15  2  0
  2 10  1  0
  3 18  1  0
  3 24  1  0
  4 17  1  0
  4 25  2  0
  4 31  1  0
  5 17  1  0
  6  7  2  0
  6 11  1  0
  6 31  1  0
  7 18  1  0
  8 21  2  0
  8 23  1  0
  9 16  1  0
  9 19  1  0
 10 22  1  0
 10 24  2  0
 11 13  2  0
 11 21  1  0
 12 30  1  0
 13 29  1  0
 14 19  1  0
 14 20  1  0
 15 25  1  0
 15 30  1  0
 16 28  1  0
 18 22  2  0
 19 26  1  0
 20 27  1  0
 22 31  1  0
 23 29  2  0
 24 27  1  0
 26 27  1  0
M  END
>  <ID>  (1) 
conformer_0

$$$$
