
     RDKit          3D

 35 38  0  0  0  0  0  0  0  0999 V2000
   61.4815   -6.7581  -71.0580 O   0  0  0  0  0  0  0  0  0  0  0  0
   70.2202   -1.5410  -65.6677 C   0  0  0  0  0  0  0  0  0  0  0  0
   59.1751   -5.3703  -70.1997 O   0  0  0  0  0  0  0  0  0  0  0  0
   65.7308   -4.3586  -68.8417 C   0  0  0  0  0  0  0  0  0  0  0  0
   64.3483   -4.6164  -69.4370 C   0  0  0  0  0  0  0  0  0  0  0  0
   69.2112   -2.1135  -66.5066 C   0  0  0  0  0  0  0  0  0  0  0  0
   63.4452   -9.2895  -68.5289 C   0  0  0  0  0  0  0  0  0  0  0  0
   69.4760   -3.4575  -66.9883 C   0  0  0  0  0  0  0  0  0  0  0  0
   61.1464   -5.2485  -71.6328 C   0  0  0  0  0  0  0  0  0  0  0  0
   67.3495   -2.9163  -67.6680 C   0  0  0  0  0  0  0  0  0  0  0  0
   63.6519   -6.7101  -68.0266 C   0  0  0  0  0  0  0  0  0  0  0  0
   65.6641   -7.6946  -67.0281 C   0  0  0  0  0  0  0  0  0  0  0  0
   62.9450   -6.7272  -66.9071 O   0  0  0  0  0  0  0  0  0  0  0  0
   62.8300  -11.2654  -69.6340 C   0  0  0  0  0  0  0  0  0  0  0  0
   62.7007   -9.1764  -70.7535 C   0  0  0  0  0  0  0  0  0  0  0  0
   67.8939   -1.7795  -66.9965 C   0  0  0  0  0  0  0  0  0  0  0  0
   64.2413   -7.1516  -66.8698 C   0  0  0  0  0  0  0  0  0  0  0  0
   62.5212  -10.5283  -70.7779 C   0  0  0  0  0  0  0  0  0  0  0  0
   63.2812  -10.6413  -68.5022 C   0  0  0  0  0  0  0  0  0  0  0  0
   71.6477   -3.3798  -65.9630 C   0  0  0  0  0  0  0  0  0  0  0  0
   70.6115   -4.0507  -66.6031 C   0  0  0  0  0  0  0  0  0  0  0  0
   63.8936   -3.0861  -69.8200 C   0  0  0  0  0  0  0  0  0  0  0  0
   68.3155   -3.9133  -67.6143 C   0  0  0  0  0  0  0  0  0  0  0  0
   67.9547   -5.1042  -68.1968 C   0  0  0  0  0  0  0  0  0  0  0  0
   66.0974   -3.1236  -68.2919 C   0  0  0  0  0  0  0  0  0  0  0  0
   63.3585   -5.3534  -70.1209 C   0  0  0  0  0  0  0  0  0  0  0  0
   62.2555   -5.7791  -70.8376 N   0  0  0  0  0  0  0  0  0  0  0  0
   58.9644   -4.4088  -72.2168 O   0  0  0  0  0  0  0  0  0  0  0  0
   63.4216   -7.3804  -69.1166 C   0  0  0  0  0  0  0  0  0  0  0  0
   59.7523   -4.9985  -71.3012 C   0  0  0  0  0  0  0  0  0  0  0  0
   63.8094   -6.0048  -69.1069 N   0  0  0  0  0  0  0  0  0  0  0  0
   66.6993   -5.3213  -68.8282 C   0  0  0  0  0  0  0  0  0  0  0  0
   63.1479   -8.5708  -69.5808 C   0  0  0  0  0  0  0  0  0  0  0  0
   71.4992   -2.0504  -65.6993 N   0  0  0  0  0  0  0  0  0  0  0  0
   61.3788   -5.1290  -72.9759 O   0  0  0  0  0  0  0  0  0  0  0  0
  1 27  1  0
  2  6  1  0
  2 34  1  0
  3 30  2  0
  4  5  1  0
  4 25  2  0
  4 32  1  0
  5 22  1  0
  5 26  1  0
  6  8  1  0
  6 16  1  0
  7 19  2  0
  7 33  1  0
  8 21  2  0
  8 23  1  0
  9 27  1  0
  9 30  1  0
  9 35  2  0
 10 16  1  0
 10 23  2  0
 10 25  1  0
 11 13  1  0
 11 17  1  0
 11 29  1  0
 11 31  1  0
 12 17  1  0
 14 18  1  0
 14 19  1  0
 15 18  2  0
 15 33  1  0
 20 21  1  0
 20 34  1  0
 23 24  1  0
 24 32  2  0
 26 27  1  0
 26 31  2  3
 28 30  1  0
 29 33  2  3
M  END
>  <ID>  (1) 
conformer_0

$$$$
