
     RDKit          3D

 37 41  0  0  0  0  0  0  0  0999 V2000
   69.6332   -3.7635  -67.0297 C   0  0  0  0  0  0  0  0  0  0  0  0
   69.0848   -1.4935  -66.4792 C   0  0  0  0  0  0  0  0  0  0  0  0
   65.1869   -4.1614  -69.3291 C   0  0  0  0  0  0  0  0  0  0  0  0
   62.1744   -8.3717  -71.0674 N   0  0  0  0  0  0  0  0  0  0  0  0
   60.0893   -2.4034  -71.7602 C   0  0  0  0  0  0  0  0  0  0  0  0
   62.5070   -5.3443  -70.3023 C   0  0  0  0  0  0  0  0  0  0  0  0
   61.8776   -0.8102  -71.5145 C   0  0  0  0  0  0  0  0  0  0  0  0
   62.3554   -9.2859  -68.6255 C   0  0  0  0  0  0  0  0  0  0  0  0
   64.8088   -8.1556  -66.1923 O   0  0  0  0  0  0  0  0  0  0  0  0
   64.4396  -10.9861  -69.7607 C   0  0  0  0  0  0  0  0  0  0  0  0
   67.5416   -4.0694  -68.4359 C   0  0  0  0  0  0  0  0  0  0  0  0
   63.6702   -9.9909  -70.5865 C   0  0  0  0  0  0  0  0  0  0  0  0
   61.1462   -7.3615  -71.1043 C   0  0  0  0  0  0  0  0  0  0  0  0
   70.7521   -3.7062  -66.2277 C   0  0  0  0  0  0  0  0  0  0  0  0
   71.0157   -2.5445  -65.5165 C   0  0  0  0  0  0  0  0  0  0  0  0
   64.3049   -3.6060  -70.0570 C   0  0  0  0  0  0  0  0  0  0  0  0
   67.6327   -2.7125  -68.1109 C   0  0  0  0  0  0  0  0  0  0  0  0
   70.1854   -1.4145  -65.6429 C   0  0  0  0  0  0  0  0  0  0  0  0
   63.5386   -9.4335  -67.7413 C   0  0  0  0  0  0  0  0  0  0  0  0
   67.3486   -5.2308  -67.6828 C   0  0  0  0  0  0  0  0  0  0  0  0
   62.6436   -9.1946  -70.0606 C   0  0  0  0  0  0  0  0  0  0  0  0
   64.0504   -8.1438  -67.2420 C   0  0  0  0  0  0  0  0  0  0  0  0
   61.1157   -9.2861  -68.2131 O   0  0  0  0  0  0  0  0  0  0  0  0
   63.8187   -9.6777  -71.9398 C   0  0  0  0  0  0  0  0  0  0  0  0
   68.7808   -2.6526  -67.1983 C   0  0  0  0  0  0  0  0  0  0  0  0
   63.5480   -7.0144  -67.7694 N   0  0  0  0  0  0  0  0  0  0  0  0
   63.0337   -4.0477  -70.3526 C   0  0  0  0  0  0  0  0  0  0  0  0
   62.1947   -3.0433  -70.8909 C   0  0  0  0  0  0  0  0  0  0  0  0
   66.2151   -5.8858  -67.8655 C   0  0  0  0  0  0  0  0  0  0  0  0
   60.5605   -1.1149  -71.8700 C   0  0  0  0  0  0  0  0  0  0  0  0
   63.9473   -6.0252  -68.4044 C   0  0  0  0  0  0  0  0  0  0  0  0
   62.6569   -1.7684  -71.0086 N   0  0  0  0  0  0  0  0  0  0  0  0
   65.1150   -5.3447  -68.5797 C   0  0  0  0  0  0  0  0  0  0  0  0
   60.9049   -3.3988  -71.2989 C   0  0  0  0  0  0  0  0  0  0  0  0
   60.3870   -4.8288  -71.3209 S   0  0  0  0  0  0  0  0  0  0  0  0
   62.8870   -8.6551  -72.2282 N   0  0  0  0  0  0  0  0  0  0  0  0
   61.3941   -5.8842  -70.8563 C   0  0  0  0  0  0  0  0  0  0  0  0
  1 14  2  0
  1 25  1  0
  2 18  1  0
  2 25  2  0
  3 16  2  0
  3 33  1  0
  4 13  1  0
  4 21  1  0
  4 36  1  0
  5 30  1  0
  5 34  2  0
  6 27  2  0
  6 37  1  0
  7 30  2  0
  7 32  1  0
  8 19  1  0
  8 21  1  0
  8 23  1  0
  9 22  2  0
 10 12  1  0
 11 17  1  0
 11 20  1  0
 12 21  2  0
 12 24  1  0
 13 37  2  0
 14 15  1  0
 15 18  2  0
 16 27  1  0
 17 25  1  0
 19 22  1  0
 20 29  2  3
 22 26  1  0
 24 36  1  0
 26 31  1  0
 27 28  1  0
 28 32  2  0
 28 34  1  0
 29 33  1  0
 31 33  2  0
 34 35  1  0
 35 37  1  0
M  END
>  <ID>  (1) 
conformer_0

$$$$
