
     RDKit          3D

 34 38  0  0  0  0  0  0  0  0999 V2000
   64.1666   -3.2650  -69.6589 C   0  0  0  0  0  0  0  0  0  0  0  0
   65.9641   -7.1269  -67.4690 C   0  0  0  0  0  0  0  0  0  0  0  0
   63.2121  -10.2667  -70.5647 C   0  0  0  0  0  0  0  0  0  0  0  0
   64.2824   -7.8647  -65.8387 O   0  0  0  0  0  0  0  0  0  0  0  0
   65.8687   -6.0143  -68.3979 C   0  0  0  0  0  0  0  0  0  0  0  0
   60.5901   -9.6885  -67.8864 O   0  0  0  0  0  0  0  0  0  0  0  0
   62.1241   -3.6873  -70.9386 C   0  0  0  0  0  0  0  0  0  0  0  0
   64.1733   -1.9657  -70.0873 C   0  0  0  0  0  0  0  0  0  0  0  0
   66.7776   -4.9143  -68.1569 C   0  0  0  0  0  0  0  0  0  0  0  0
   70.9210   -3.8212  -66.3454 O   0  0  0  0  0  0  0  0  0  0  0  0
   64.0864   -8.6859  -68.1181 C   0  0  0  0  0  0  0  0  0  0  0  0
   69.7199   -3.5695  -66.7346 C   0  0  0  0  0  0  0  0  0  0  0  0
   63.1509   -4.1618  -70.0912 C   0  0  0  0  0  0  0  0  0  0  0  0
   61.8632   -2.5611  -71.5329 C   0  0  0  0  0  0  0  0  0  0  0  0
   64.7804   -7.9809  -67.1053 C   0  0  0  0  0  0  0  0  0  0  0  0
   62.5421   -9.8306  -69.2890 C   0  0  0  0  0  0  0  0  0  0  0  0
   63.5574  -10.0774  -68.1279 C   0  0  0  0  0  0  0  0  0  0  0  0
   69.0204   -4.5578  -67.3381 C   0  0  0  0  0  0  0  0  0  0  0  0
   63.4985   -6.6566  -69.3035 C   0  0  0  0  0  0  0  0  0  0  0  0
   62.4227   -1.3583  -71.5794 C   0  0  0  0  0  0  0  0  0  0  0  0
   63.5642   -1.1768  -70.7953 C   0  0  0  0  0  0  0  0  0  0  0  0
   69.2074   -2.2001  -66.5190 C   0  0  0  0  0  0  0  0  0  0  0  0
   61.0771   -7.0514  -70.7140 O   0  0  0  0  0  0  0  0  0  0  0  0
   66.2748   -3.5238  -68.2574 C   0  0  0  0  0  0  0  0  0  0  0  0
   63.0126   -8.1199  -69.1045 C   0  0  0  0  0  0  0  0  0  0  0  0
   70.0272   -1.2742  -65.7123 C   0  0  0  0  0  0  0  0  0  0  0  0
   67.9535   -1.9193  -67.0642 C   0  0  0  0  0  0  0  0  0  0  0  0
   61.6560   -5.8928  -70.6146 C   0  0  0  0  0  0  0  0  0  0  0  0
   61.2047  -10.4108  -68.9767 C   0  0  0  0  0  0  0  0  0  0  0  0
   61.1710   -4.8129  -71.2149 C   0  0  0  0  0  0  0  0  0  0  0  0
   68.0203   -5.0872  -67.8026 C   0  0  0  0  0  0  0  0  0  0  0  0
   62.8879   -5.5327  -69.9003 N   0  0  0  0  0  0  0  0  0  0  0  0
   66.9902   -2.5035  -67.6961 C   0  0  0  0  0  0  0  0  0  0  0  0
   65.1473   -3.4652  -68.8579 N   0  0  0  0  0  0  0  0  0  0  0  0
  1  8  1  0
  1 13  2  0
  1 34  1  0
  2  5  1  0
  2 15  1  0
  3 16  1  0
  4 15  1  0
  5  9  1  0
  6 29  1  0
  7 13  1  0
  7 14  2  0
  7 30  1  0
  8 21  2  0
  9 24  1  0
  9 31  1  0
 10 12  1  0
 11 15  1  0
 11 17  1  0
 11 25  1  0
 12 18  2  0
 12 22  1  0
 13 32  1  0
 14 20  1  0
 16 17  1  0
 16 25  1  0
 16 29  1  0
 18 31  2  0
 19 25  1  0
 19 32  1  0
 20 21  1  0
 22 26  1  0
 22 27  1  0
 23 28  2  0
 24 33  2  0
 24 34  1  0
 27 33  2  0
 28 30  1  0
 28 32  1  0
M  END
>  <ID>  (1) 
conformer_0

$$$$
