
     RDKit          3D

 30 36  0  0  0  0  0  0  0  0999 V2000
   70.1387   -3.3434  -66.2882 C   0  0  0  0  0  0  0  0  0  0  0  0
   66.7204   -5.4895  -67.9107 N   0  0  0  0  0  0  0  0  0  0  0  0
   66.5175   -4.2002  -68.4544 C   0  0  0  0  0  0  0  0  0  0  0  0
   64.9841   -2.9899  -69.7199 C   0  0  0  0  0  0  0  0  0  0  0  0
   65.1584   -7.5771  -67.7816 C   0  0  0  0  0  0  0  0  0  0  0  0
   63.6430   -5.9186  -69.5813 C   0  0  0  0  0  0  0  0  0  0  0  0
   61.9230   -6.3866  -71.0841 C   0  0  0  0  0  0  0  0  0  0  0  0
   64.7403   -5.4506  -69.0224 C   0  0  0  0  0  0  0  0  0  0  0  0
   62.9824   -9.8751  -68.5203 C   0  0  0  0  0  0  0  0  0  0  0  0
   63.1535   -7.1670  -69.2023 C   0  0  0  0  0  0  0  0  0  0  0  0
   63.5723   -7.5827  -67.8364 C   0  0  0  0  0  0  0  0  0  0  0  0
   63.0472   -8.9010  -67.3353 C   0  0  0  0  0  0  0  0  0  0  0  0
   70.2025   -2.0827  -65.6897 C   0  0  0  0  0  0  0  0  0  0  0  0
   65.5883   -6.2442  -68.2264 C   0  0  0  0  0  0  0  0  0  0  0  0
   61.6049   -9.7034  -69.1141 C   0  0  0  0  0  0  0  0  0  0  0  0
   62.9852   -3.9738  -70.9017 C   0  0  0  0  0  0  0  0  0  0  0  0
   69.0959   -3.6216  -67.2029 C   0  0  0  0  0  0  0  0  0  0  0  0
   62.8857   -5.2688  -70.5913 C   0  0  0  0  0  0  0  0  0  0  0  0
   65.2904   -4.2095  -69.1757 C   0  0  0  0  0  0  0  0  0  0  0  0
   68.2566   -1.4085  -66.9654 C   0  0  0  0  0  0  0  0  0  0  0  0
   60.6742   -9.8594  -68.2168 O   0  0  0  0  0  0  0  0  0  0  0  0
   63.7877   -2.9492  -70.5182 C   0  0  0  0  0  0  0  0  0  0  0  0
   69.2739   -1.1118  -66.0239 C   0  0  0  0  0  0  0  0  0  0  0  0
   66.1132   -2.0893  -69.2188 N   0  0  0  0  0  0  0  0  0  0  0  0
   68.1526   -2.6634  -67.5500 C   0  0  0  0  0  0  0  0  0  0  0  0
   62.1709   -7.5440  -70.1813 C   0  0  0  0  0  0  0  0  0  0  0  0
   65.5024   -8.5208  -66.6969 C   0  0  0  0  0  0  0  0  0  0  0  0
   67.0749   -2.8847  -68.4825 C   0  0  0  0  0  0  0  0  0  0  0  0
   61.5648   -8.8032  -70.1634 O   0  0  0  0  0  0  0  0  0  0  0  0
   63.0564   -6.5850  -66.8584 O   0  0  0  0  0  0  0  0  0  0  0  0
  1 13  2  0
  1 17  1  0
  2  3  1  0
  2 14  1  0
  3 19  2  0
  3 28  1  0
  4 19  1  0
  4 22  2  0
  4 24  1  0
  5 11  1  0
  5 14  1  0
  5 27  1  0
  6  8  2  0
  6 10  1  0
  6 18  1  0
  7 18  1  0
  7 26  1  0
  8 14  1  0
  8 19  1  0
  9 12  1  0
  9 15  1  0
 10 11  1  0
 10 26  1  0
 11 12  1  0
 11 30  1  0
 13 23  1  0
 15 21  2  0
 15 29  1  0
 16 18  2  0
 16 22  1  0
 17 25  2  0
 20 23  2  0
 20 25  1  0
 24 28  1  0
 25 28  1  0
 26 29  1  0
M  END
>  <ID>  (1) 
conformer_0

$$$$
