
     RDKit          3D

 26 27  0  0  0  0  0  0  0  0999 V2000
   64.1811   -8.9338  -70.2806 C   0  0  0  0  0  0  0  0  0  0  0  0
   64.9918   -6.8459  -69.3667 C   0  0  0  0  0  0  0  0  0  0  0  0
   68.1353   -4.6644  -67.5466 C   0  0  0  0  0  0  0  0  0  0  0  0
   66.8607   -5.3472  -67.8367 C   0  0  0  0  0  0  0  0  0  0  0  0
   68.6918   -2.2195  -67.2293 C   0  0  0  0  0  0  0  0  0  0  0  0
   70.5619   -1.6863  -65.6053 C   0  0  0  0  0  0  0  0  0  0  0  0
   62.9005   -8.0001  -68.0135 C   0  0  0  0  0  0  0  0  0  0  0  0
   63.9770   -5.6913  -68.8855 C   0  0  0  0  0  0  0  0  0  0  0  0
   60.7078   -9.7988  -67.7775 O   0  0  0  0  0  0  0  0  0  0  0  0
   64.7470   -4.3724  -69.1787 C   0  0  0  0  0  0  0  0  0  0  0  0
   61.0049  -10.4841  -69.9027 O   0  0  0  0  0  0  0  0  0  0  0  0
   63.3109   -8.9393  -69.0448 C   0  0  0  0  0  0  0  0  0  0  0  0
   65.1841   -4.4219  -70.5116 O   0  0  0  0  0  0  0  0  0  0  0  0
   67.7497   -1.4367  -66.5764 O   0  0  0  0  0  0  0  0  0  0  0  0
   63.7730   -5.7942  -67.3238 C   0  0  0  0  0  0  0  0  0  0  0  0
   68.0290   -3.2672  -68.0426 C   0  0  0  0  0  0  0  0  0  0  0  0
   64.6269   -7.8818  -66.3146 O   0  0  0  0  0  0  0  0  0  0  0  0
   65.5692   -8.2079  -69.8033 C   0  0  0  0  0  0  0  0  0  0  0  0
   63.7485   -7.3026  -67.0386 C   0  0  0  0  0  0  0  0  0  0  0  0
   62.8951  -10.3426  -68.6302 C   0  0  0  0  0  0  0  0  0  0  0  0
   69.8260   -2.7020  -66.3770 C   0  0  0  0  0  0  0  0  0  0  0  0
   70.4241   -3.8875  -66.4460 O   0  0  0  0  0  0  0  0  0  0  0  0
   65.9156   -4.2728  -68.2283 C   0  0  0  0  0  0  0  0  0  0  0  0
   63.8762   -3.1863  -68.9709 C   0  0  0  0  0  0  0  0  0  0  0  0
   66.6621   -3.0725  -68.3382 O   0  0  0  0  0  0  0  0  0  0  0  0
   61.3513  -10.3051  -68.7120 C   0  0  0  0  0  0  0  0  0  0  0  0
  1 12  1  0
  1 18  1  0
  2  8  1  0
  2 18  1  0
  3  4  1  0
  3 16  1  0
  4 23  1  0
  5 14  1  0
  5 16  1  0
  5 21  1  0
  6 21  1  0
  7 12  1  0
  7 19  1  0
  8 10  1  0
  8 15  1  0
  9 26  2  0
 10 13  1  0
 10 23  1  0
 10 24  1  0
 11 26  1  0
 12 20  1  0
 15 19  1  0
 16 25  1  0
 17 19  2  0
 20 26  1  0
 21 22  1  0
 23 25  1  0
M  END
>  <ID>  (1) 
conformer_0

$$$$
