
     RDKit          3D

 36 40  0  0  0  0  0  0  0  0999 V2000
   64.2268   -3.8871  -69.5632 C   0  0  0  0  0  0  0  0  0  0  0  0
   63.1415   -3.6738  -70.2862 C   0  0  0  0  0  0  0  0  0  0  0  0
   68.4296   -2.8300  -67.0459 C   0  0  0  0  0  0  0  0  0  0  0  0
   64.2733   -6.9967  -67.5331 C   0  0  0  0  0  0  0  0  0  0  0  0
   63.0779   -2.4107  -70.8951 C   0  0  0  0  0  0  0  0  0  0  0  0
   63.8369   -7.9691  -68.7499 C   0  0  0  0  0  0  0  0  0  0  0  0
   68.7445   -5.1494  -67.6409 C   0  0  0  0  0  0  0  0  0  0  0  0
   61.6994   -5.6116  -69.4870 O   0  0  0  0  0  0  0  0  0  0  0  0
   71.2940   -3.4537  -65.7341 C   0  0  0  0  0  0  0  0  0  0  0  0
   66.4172   -5.0682  -68.2242 C   0  0  0  0  0  0  0  0  0  0  0  0
   71.0474   -2.1508  -65.2912 C   0  0  0  0  0  0  0  0  0  0  0  0
   61.0274   -4.6416  -71.4603 C   0  0  0  0  0  0  0  0  0  0  0  0
   62.8083   -8.8022  -68.2823 C   0  0  0  0  0  0  0  0  0  0  0  0
   62.2565   -9.2131  -70.6502 C   0  0  0  0  0  0  0  0  0  0  0  0
   65.2093   -1.7838  -69.7788 C   0  0  0  0  0  0  0  0  0  0  0  0
   65.3623   -6.1060  -68.1330 C   0  0  0  0  0  0  0  0  0  0  0  0
   64.4773   -7.8952  -66.4592 O   0  0  0  0  0  0  0  0  0  0  0  0
   62.7931  -11.0248  -69.1902 C   0  0  0  0  0  0  0  0  0  0  0  0
   61.9840   -9.6599  -69.2009 C   0  0  0  0  0  0  0  0  0  0  0  0
   68.8940   -1.7207  -66.3506 C   0  0  0  0  0  0  0  0  0  0  0  0
   63.7879   -9.6690  -70.9132 C   0  0  0  0  0  0  0  0  0  0  0  0
   67.6236   -5.5889  -68.0254 N   0  0  0  0  0  0  0  0  0  0  0  0
   64.1191   -1.4931  -70.6318 C   0  0  0  0  0  0  0  0  0  0  0  0
   63.9422   -7.2058  -70.0016 C   0  0  0  0  0  0  0  0  0  0  0  0
   69.2435   -4.0208  -67.0524 C   0  0  0  0  0  0  0  0  0  0  0  0
   59.8690   -3.9766  -70.9194 O   0  0  0  0  0  0  0  0  0  0  0  0
   60.6960   -9.7658  -68.7786 O   0  0  0  0  0  0  0  0  0  0  0  0
   67.2362   -2.8245  -67.6837 C   0  0  0  0  0  0  0  0  0  0  0  0
   64.1974  -10.3880  -69.5564 C   0  0  0  0  0  0  0  0  0  0  0  0
   70.4932   -4.1230  -66.4866 C   0  0  0  0  0  0  0  0  0  0  0  0
   64.3698   -9.2273  -68.5880 C   0  0  0  0  0  0  0  0  0  0  0  0
   63.1630   -6.2042  -67.1677 O   0  0  0  0  0  0  0  0  0  0  0  0
   62.0507   -4.7120  -70.4850 C   0  0  0  0  0  0  0  0  0  0  0  0
   69.9268   -1.4284  -65.6118 C   0  0  0  0  0  0  0  0  0  0  0  0
   65.2516   -3.0920  -69.2213 C   0  0  0  0  0  0  0  0  0  0  0  0
   66.3438   -3.6148  -68.3525 C   0  0  0  0  0  0  0  0  0  0  0  0
  1  2  2  0
  1 35  1  0
  2  5  1  0
  2 33  1  0
  3 20  1  0
  3 25  1  0
  3 28  2  0
  4  6  1  0
  4 16  1  0
  4 17  1  0
  4 32  1  0
  5 23  2  0
  6 13  1  0
  6 24  1  0
  6 31  1  0
  7 22  2  0
  7 25  1  0
  8 33  1  0
  9 11  1  0
  9 30  2  0
 10 16  1  0
 10 22  1  0
 10 36  1  0
 11 34  1  0
 12 26  1  0
 12 33  1  0
 13 19  1  0
 14 19  1  0
 14 21  1  0
 15 23  1  0
 15 35  2  0
 18 19  1  0
 18 29  1  0
 19 27  1  0
 20 34  2  0
 21 29  1  0
 25 30  1  0
 28 36  1  0
 29 31  1  0
 35 36  1  0
M  END
>  <ID>  (1) 
conformer_0

$$$$
