
     RDKit          3D

 29 33  0  0  0  0  0  0  0  0999 V2000
   64.8247   -1.4779  -69.1004 C   0  0  0  0  0  0  0  0  0  0  0  0
   62.2317   -8.2241  -70.3266 C   0  0  0  0  0  0  0  0  0  0  0  0
   68.2674   -3.9213  -68.6597 C   0  0  0  0  0  0  0  0  0  0  0  0
   70.9208   -2.4929  -64.9009 C   0  0  0  0  0  0  0  0  0  0  0  0
   66.9273   -5.7902  -67.8737 C   0  0  0  0  0  0  0  0  0  0  0  0
   63.5429   -9.4140  -68.7293 C   0  0  0  0  0  0  0  0  0  0  0  0
   67.1987   -1.7779  -68.3210 O   0  0  0  0  0  0  0  0  0  0  0  0
   64.6364   -4.3018  -68.7042 C   0  0  0  0  0  0  0  0  0  0  0  0
   69.4174   -1.3291  -66.3502 C   0  0  0  0  0  0  0  0  0  0  0  0
   60.7562   -9.8381  -67.6841 O   0  0  0  0  0  0  0  0  0  0  0  0
   65.9647   -3.7091  -69.0334 C   0  0  0  0  0  0  0  0  0  0  0  0
   64.2816   -3.8460  -67.1791 C   0  0  0  0  0  0  0  0  0  0  0  0
   62.7634   -7.0699  -69.5843 C   0  0  0  0  0  0  0  0  0  0  0  0
   65.6549   -6.3009  -67.7283 C   0  0  0  0  0  0  0  0  0  0  0  0
   63.9310   -7.9906  -68.5656 C   0  0  0  0  0  0  0  0  0  0  0  0
   67.0447   -4.4960  -68.5210 C   0  0  0  0  0  0  0  0  0  0  0  0
   70.2861   -1.3053  -65.2238 C   0  0  0  0  0  0  0  0  0  0  0  0
   69.9925   -3.5965  -66.7295 C   0  0  0  0  0  0  0  0  0  0  0  0
   62.3029   -9.5434  -69.5825 C   0  0  0  0  0  0  0  0  0  0  0  0
   68.3217   -2.5567  -68.1882 C   0  0  0  0  0  0  0  0  0  0  0  0
   62.5947  -10.6764  -70.5797 C   0  0  0  0  0  0  0  0  0  0  0  0
   64.0908   -6.8450  -69.4432 C   0  0  0  0  0  0  0  0  0  0  0  0
   63.7111   -7.6232  -67.1189 C   0  0  0  0  0  0  0  0  0  0  0  0
   64.8909   -6.9115  -66.6114 C   0  0  0  0  0  0  0  0  0  0  0  0
   61.0232  -10.0528  -68.9962 C   0  0  0  0  0  0  0  0  0  0  0  0
   64.7537   -5.7712  -68.8010 C   0  0  0  0  0  0  0  0  0  0  0  0
   66.0821   -2.2612  -68.8897 C   0  0  0  0  0  0  0  0  0  0  0  0
   69.2400   -2.4662  -67.0836 C   0  0  0  0  0  0  0  0  0  0  0  0
   70.7326   -3.6662  -65.6158 N   0  0  0  0  0  0  0  0  0  0  0  0
  1 27  1  0
  2 13  1  0
  2 19  1  0
  3 16  1  0
  3 20  1  0
  4 17  2  0
  4 29  1  0
  5 14  1  0
  5 16  2  0
  6 15  1  0
  6 19  1  0
  7 20  1  0
  7 27  1  0
  8 11  1  0
  8 12  1  0
  8 26  1  0
  9 17  1  0
  9 28  2  0
 10 25  1  0
 11 16  1  0
 11 27  1  0
 13 22  1  0
 14 24  1  0
 14 26  1  0
 15 22  1  0
 15 23  1  0
 18 28  1  0
 18 29  2  0
 19 21  1  0
 19 25  1  0
 20 28  1  0
 22 26  1  0
 23 24  1  0
M  END
>  <ID>  (1) 
conformer_0

$$$$
