
     RDKit          3D

 27 31  0  0  0  0  0  0  0  0999 V2000
   62.5187   -9.4793  -67.6921 N   0  0  0  0  0  0  0  0  0  0  0  0
   68.7067   -1.9293  -65.7760 C   0  0  0  0  0  0  0  0  0  0  0  0
   64.5299   -8.0659  -67.4278 C   0  0  0  0  0  0  0  0  0  0  0  0
   66.7460   -3.9611  -68.2092 C   0  0  0  0  0  0  0  0  0  0  0  0
   62.8684   -3.7639  -70.3601 C   0  0  0  0  0  0  0  0  0  0  0  0
   61.6499   -3.9479  -70.8959 C   0  0  0  0  0  0  0  0  0  0  0  0
   67.7656   -2.1337  -66.8680 C   0  0  0  0  0  0  0  0  0  0  0  0
   66.7596   -5.3741  -68.0551 C   0  0  0  0  0  0  0  0  0  0  0  0
   64.7551   -4.7023  -69.1006 C   0  0  0  0  0  0  0  0  0  0  0  0
   64.7850   -6.9164  -68.0612 O   0  0  0  0  0  0  0  0  0  0  0  0
   62.4228   -9.8967  -69.8901 O   0  0  0  0  0  0  0  0  0  0  0  0
   63.6188   -9.1772  -69.6030 N   0  0  0  0  0  0  0  0  0  0  0  0
   63.6043   -8.9348  -68.2509 C   0  0  0  0  0  0  0  0  0  0  0  0
   70.8776   -3.0822  -66.0354 C   0  0  0  0  0  0  0  0  0  0  0  0
   60.4813  -10.3838  -68.4042 O   0  0  0  0  0  0  0  0  0  0  0  0
   65.4203   -5.8043  -68.4487 C   0  0  0  0  0  0  0  0  0  0  0  0
   63.4645   -4.8545  -69.7588 C   0  0  0  0  0  0  0  0  0  0  0  0
   70.1575   -1.8430  -65.5988 C   0  0  0  0  0  0  0  0  0  0  0  0
   67.7959   -3.2706  -67.6571 C   0  0  0  0  0  0  0  0  0  0  0  0
   61.6973  -10.0330  -68.6495 C   0  0  0  0  0  0  0  0  0  0  0  0
   68.7951   -4.2951  -67.2578 C   0  0  0  0  0  0  0  0  0  0  0  0
   65.5980   -3.5939  -68.9238 C   0  0  0  0  0  0  0  0  0  0  0  0
   60.9604   -5.1537  -70.9036 N   0  0  0  0  0  0  0  0  0  0  0  0
   61.5925   -6.1984  -70.3669 C   0  0  0  0  0  0  0  0  0  0  0  0
   70.1437   -3.8221  -67.0313 C   0  0  0  0  0  0  0  0  0  0  0  0
   68.1846   -5.6188  -67.6311 C   0  0  0  0  0  0  0  0  0  0  0  0
   62.8111   -6.0391  -69.8225 N   0  0  0  0  0  0  0  0  0  0  0  0
  1 13  2  0
  1 20  1  0
  2  7  1  0
  2 18  1  0
  3 10  1  0
  3 13  1  0
  4  8  1  0
  4 19  1  0
  4 22  1  0
  5  6  2  0
  5 17  1  0
  6 23  1  0
  7 19  1  0
  8 16  1  0
  8 26  1  0
  9 16  1  0
  9 17  1  0
  9 22  1  0
 10 16  1  0
 11 12  1  0
 11 20  1  0
 12 13  1  0
 14 18  1  0
 14 25  1  0
 15 20  2  0
 17 27  2  0
 19 21  1  0
 21 25  1  0
 21 26  1  0
 23 24  2  0
 24 27  1  0
M  END
>  <ID>  (1) 
conformer_0

$$$$
