
     RDKit          3D

 31 34  0  0  0  0  0  0  0  0999 V2000
   60.6536  -10.7700  -67.6443 O   0  0  0  0  0  0  0  0  0  0  0  0
   69.3646   -0.8362  -67.2016 C   0  0  0  0  0  0  0  0  0  0  0  0
   62.4778   -9.5604  -70.3819 C   0  0  0  0  0  0  0  0  0  0  0  0
   68.8690   -2.5048  -65.5596 C   0  0  0  0  0  0  0  0  0  0  0  0
   61.5501   -7.5783  -71.3092 O   0  0  0  0  0  0  0  0  0  0  0  0
   64.0193   -8.3572  -67.9946 C   0  0  0  0  0  0  0  0  0  0  0  0
   66.1784   -5.9455  -67.4373 C   0  0  0  0  0  0  0  0  0  0  0  0
   65.2191   -3.3072  -68.4779 C   0  0  0  0  0  0  0  0  0  0  0  0
   67.4047   -5.2889  -67.9971 C   0  0  0  0  0  0  0  0  0  0  0  0
   62.4919  -10.0928  -68.9341 C   0  0  0  0  0  0  0  0  0  0  0  0
   67.2990   -4.2884  -69.1414 C   0  0  0  0  0  0  0  0  0  0  0  0
   61.2570  -10.9773  -68.7013 C   0  0  0  0  0  0  0  0  0  0  0  0
   69.6428   -1.4334  -66.0001 C   0  0  0  0  0  0  0  0  0  0  0  0
   62.7042   -8.9603  -68.0602 O   0  0  0  0  0  0  0  0  0  0  0  0
   67.8967   -2.9787  -66.3977 C   0  0  0  0  0  0  0  0  0  0  0  0
   64.8186   -4.6692  -69.0148 C   0  0  0  0  0  0  0  0  0  0  0  0
   66.6792   -3.0249  -68.6113 C   0  0  0  0  0  0  0  0  0  0  0  0
   65.0896   -5.9385  -68.4243 C   0  0  0  0  0  0  0  0  0  0  0  0
   64.5732   -3.0421  -69.8235 C   0  0  0  0  0  0  0  0  0  0  0  0
   64.2404   -7.0742  -68.7197 C   0  0  0  0  0  0  0  0  0  0  0  0
   61.2607  -12.0257  -69.4808 O   0  0  0  0  0  0  0  0  0  0  0  0
   67.6293   -2.4279  -67.6435 C   0  0  0  0  0  0  0  0  0  0  0  0
   64.3776   -4.4161  -70.2536 O   0  0  0  0  0  0  0  0  0  0  0  0
   62.1970   -5.8375  -69.2302 O   0  0  0  0  0  0  0  0  0  0  0  0
   64.1210   -1.9947  -70.1235 O   0  0  0  0  0  0  0  0  0  0  0  0
   68.5748   -5.7333  -67.7362 O   0  0  0  0  0  0  0  0  0  0  0  0
   62.5260   -7.9916  -70.3715 C   0  0  0  0  0  0  0  0  0  0  0  0
   62.7606   -9.8651  -71.9233 C   0  0  0  0  0  0  0  0  0  0  0  0
   68.3467   -1.3154  -68.0311 C   0  0  0  0  0  0  0  0  0  0  0  0
   64.5886   -8.2204  -66.5397 C   0  0  0  0  0  0  0  0  0  0  0  0
   63.1196   -6.7902  -69.6243 C   0  0  0  0  0  0  0  0  0  0  0  0
  1 12  2  0
  2 13  2  0
  2 29  1  0
  3 10  1  0
  3 27  1  0
  3 28  1  0
  4 13  1  0
  4 15  2  0
  5 27  1  0
  6 14  1  0
  6 20  1  0
  6 30  1  0
  7  9  1  0
  7 18  1  0
  8 16  1  0
  8 17  1  0
  8 19  1  0
  9 11  1  0
  9 26  2  0
 10 12  1  0
 10 14  1  0
 11 17  1  0
 12 21  1  0
 15 22  1  0
 16 18  1  0
 16 23  1  0
 17 22  1  0
 18 20  1  0
 19 23  1  0
 19 25  2  0
 20 31  1  0
 22 29  2  0
 24 31  1  0
 27 31  1  0
M  END
>  <ID>  (1) 
conformer_0

$$$$
