
     RDKit          3D

 27 31  0  0  0  0  0  0  0  0999 V2000
   65.3950   -7.3490  -67.6702 C   0  0  0  0  0  0  0  0  0  0  0  0
   64.2701   -6.7748  -68.4679 C   0  0  0  0  0  0  0  0  0  0  0  0
   68.8468   -3.8223  -67.3006 C   0  0  0  0  0  0  0  0  0  0  0  0
   66.5257   -3.6703  -67.2365 C   0  0  0  0  0  0  0  0  0  0  0  0
   61.4649   -4.2189  -70.9049 C   0  0  0  0  0  0  0  0  0  0  0  0
   63.3253   -2.4156  -70.4807 C   0  0  0  0  0  0  0  0  0  0  0  0
   69.7784   -2.8608  -65.2889 O   0  0  0  0  0  0  0  0  0  0  0  0
   63.8571   -9.2691  -67.8183 N   0  0  0  0  0  0  0  0  0  0  0  0
   62.6968   -8.6320  -68.3682 C   0  0  0  0  0  0  0  0  0  0  0  0
   69.1923   -5.0813  -67.2564 O   0  0  0  0  0  0  0  0  0  0  0  0
   62.3554   -5.2446  -70.2626 C   0  0  0  0  0  0  0  0  0  0  0  0
   65.2207   -8.7914  -67.3947 C   0  0  0  0  0  0  0  0  0  0  0  0
   63.6627   -4.7273  -69.9027 C   0  0  0  0  0  0  0  0  0  0  0  0
   67.8169   -1.8467  -66.3904 C   0  0  0  0  0  0  0  0  0  0  0  0
   67.7457   -3.3528  -68.1840 C   0  0  0  0  0  0  0  0  0  0  0  0
   62.2014   -6.7213  -69.9851 C   0  0  0  0  0  0  0  0  0  0  0  0
   66.4005   -5.1465  -67.5475 C   0  0  0  0  0  0  0  0  0  0  0  0
   63.0470   -7.3729  -68.9797 C   0  0  0  0  0  0  0  0  0  0  0  0
   64.6096   -5.5243  -69.1448 C   0  0  0  0  0  0  0  0  0  0  0  0
   63.9043  -10.6635  -68.3027 C   0  0  0  0  0  0  0  0  0  0  0  0
   61.4973   -9.0452  -68.2865 O   0  0  0  0  0  0  0  0  0  0  0  0
   66.9136   -2.3814  -67.4885 C   0  0  0  0  0  0  0  0  0  0  0  0
   62.0684   -2.8416  -71.2335 C   0  0  0  0  0  0  0  0  0  0  0  0
   64.2804   -3.5521  -70.5753 C   0  0  0  0  0  0  0  0  0  0  0  0
   66.4188   -6.5144  -66.9706 C   0  0  0  0  0  0  0  0  0  0  0  0
   68.8351   -2.8461  -66.1727 C   0  0  0  0  0  0  0  0  0  0  0  0
   66.0191   -5.1675  -69.0303 C   0  0  0  0  0  0  0  0  0  0  0  0
  1  2  1  0
  1 12  1  0
  1 25  1  0
  2 18  1  0
  2 19  1  0
  3 10  1  0
  3 15  1  0
  3 26  1  0
  4 17  1  0
  4 22  1  0
  5 11  2  0
  5 23  1  0
  6 23  1  0
  6 24  1  0
  7 26  1  0
  8  9  1  0
  8 12  1  0
  8 20  1  0
  9 18  1  0
  9 21  2  0
 11 13  1  0
 11 16  1  0
 13 19  2  0
 13 24  1  0
 14 22  1  0
 14 26  1  0
 15 22  1  0
 16 18  1  0
 17 25  1  0
 17 27  1  0
 19 27  1  0
M  END
>  <ID>  (1) 
conformer_0

$$$$
