
     RDKit          3D

 35 37  0  0  0  0  0  0  0  0999 V2000
   61.7401  -10.3316  -68.4273 C   0  0  0  0  0  0  0  0  0  0  0  0
   58.1601   -3.9240  -69.7789 C   0  0  0  0  0  0  0  0  0  0  0  0
   63.2636   -5.5631  -70.6431 N   0  0  0  0  0  0  0  0  0  0  0  0
   63.6252   -6.6612  -68.4638 C   0  0  0  0  0  0  0  0  0  0  0  0
   66.9530   -3.1892  -68.0991 C   0  0  0  0  0  0  0  0  0  0  0  0
   62.4646  -10.0417  -70.8745 C   0  0  0  0  0  0  0  0  0  0  0  0
   63.1427   -9.1041  -71.8867 C   0  0  0  0  0  0  0  0  0  0  0  0
   60.4810   -5.9413  -70.6377 O   0  0  0  0  0  0  0  0  0  0  0  0
   61.7661   -3.6948  -71.4045 C   0  0  0  0  0  0  0  0  0  0  0  0
   71.5445   -2.0466  -67.0243 C   0  0  0  0  0  0  0  0  0  0  0  0
   69.2108   -2.6635  -67.0820 C   0  0  0  0  0  0  0  0  0  0  0  0
   58.6828   -3.1501  -71.0342 C   0  0  0  0  0  0  0  0  0  0  0  0
   63.8376   -9.0724  -68.8532 C   0  0  0  0  0  0  0  0  0  0  0  0
   63.7055   -8.9003  -67.4361 N   0  0  0  0  0  0  0  0  0  0  0  0
   56.9087   -3.1205  -69.2405 C   0  0  0  0  0  0  0  0  0  0  0  0
   63.7350   -7.7182  -69.4771 C   0  0  0  0  0  0  0  0  0  0  0  0
   66.0442   -2.2335  -68.4865 C   0  0  0  0  0  0  0  0  0  0  0  0
   63.1299   -6.5215  -69.6704 C   0  0  0  0  0  0  0  0  0  0  0  0
   70.5637   -3.2506  -65.2015 C   0  0  0  0  0  0  0  0  0  0  0  0
   69.3101   -3.2279  -65.8177 C   0  0  0  0  0  0  0  0  0  0  0  0
   64.7685   -2.5942  -68.6295 C   0  0  0  0  0  0  0  0  0  0  0  0
   65.6165   -7.3322  -67.4216 O   0  0  0  0  0  0  0  0  0  0  0  0
   64.6636   -8.1428  -66.7317 C   0  0  0  0  0  0  0  0  0  0  0  0
   71.6799   -2.6645  -65.8130 C   0  0  0  0  0  0  0  0  0  0  0  0
   64.9668   -6.3097  -68.1052 C   0  0  0  0  0  0  0  0  0  0  0  0
   64.4683   -3.9142  -68.4436 C   0  0  0  0  0  0  0  0  0  0  0  0
   63.1450   -4.2075  -71.1046 C   0  0  0  0  0  0  0  0  0  0  0  0
   66.6785   -4.5314  -68.0124 C   0  0  0  0  0  0  0  0  0  0  0  0
   59.4079   -4.2199  -71.9867 C   0  0  0  0  0  0  0  0  0  0  0  0
   68.1266   -2.6971  -67.7796 O   0  0  0  0  0  0  0  0  0  0  0  0
   62.8960  -10.1529  -69.4012 C   0  0  0  0  0  0  0  0  0  0  0  0
   60.6113   -9.5882  -68.9337 O   0  0  0  0  0  0  0  0  0  0  0  0
   65.3692   -4.9154  -68.1912 C   0  0  0  0  0  0  0  0  0  0  0  0
   60.6597   -4.7056  -71.2056 C   0  0  0  0  0  0  0  0  0  0  0  0
   70.3381   -2.0472  -67.6890 C   0  0  0  0  0  0  0  0  0  0  0  0
  1 31  1  0
  1 32  1  0
  2 12  1  0
  2 15  1  0
  3 18  1  0
  3 27  1  0
  4 18  1  0
  4 25  1  0
  5 17  2  0
  5 28  1  0
  5 30  1  0
  6  7  1  0
  6 31  1  0
  8 34  1  0
  9 27  1  0
  9 34  1  0
 10 24  2  0
 10 35  1  0
 11 20  2  0
 11 30  1  0
 11 35  1  0
 12 29  1  0
 13 14  1  0
 13 16  1  0
 13 31  1  0
 14 23  2  0
 16 18  1  0
 17 21  1  0
 19 20  1  0
 19 24  1  0
 21 26  2  0
 22 23  1  0
 22 25  1  0
 25 33  1  0
 26 33  1  0
 28 33  2  0
 29 34  1  0
M  END
>  <ID>  (1) 
conformer_0

$$$$
