
     RDKit          3D

 31 34  0  0  0  0  0  0  0  0999 V2000
   65.6883   -2.9835  -69.2706 N   0  0  0  0  0  0  0  0  0  0  0  0
   61.6135   -5.5491  -70.5676 C   0  0  0  0  0  0  0  0  0  0  0  0
   60.9850   -9.5569  -69.5181 O   0  0  0  0  0  0  0  0  0  0  0  0
   64.3040   -8.7430  -67.3128 C   0  0  0  0  0  0  0  0  0  0  0  0
   67.0279   -4.3195  -67.7364 C   0  0  0  0  0  0  0  0  0  0  0  0
   70.5363   -2.8282  -65.2857 C   0  0  0  0  0  0  0  0  0  0  0  0
   65.2165   -6.3247  -67.6202 C   0  0  0  0  0  0  0  0  0  0  0  0
   67.3148   -2.0691  -67.2287 O   0  0  0  0  0  0  0  0  0  0  0  0
   62.6035   -5.8251  -69.6532 C   0  0  0  0  0  0  0  0  0  0  0  0
   63.7218   -4.9671  -69.4467 C   0  0  0  0  0  0  0  0  0  0  0  0
   67.7956   -3.1812  -67.3593 C   0  0  0  0  0  0  0  0  0  0  0  0
   61.4090  -10.2395  -68.6126 C   0  0  0  0  0  0  0  0  0  0  0  0
   71.0565   -4.5809  -66.6383 C   0  0  0  0  0  0  0  0  0  0  0  0
   64.7654   -2.8313  -70.2290 C   0  0  0  0  0  0  0  0  0  0  0  0
   62.7447  -10.5330  -68.4661 N   0  0  0  0  0  0  0  0  0  0  0  0
   64.8775   -5.2144  -68.5204 C   0  0  0  0  0  0  0  0  0  0  0  0
   63.7100   -3.8012  -70.2542 C   0  0  0  0  0  0  0  0  0  0  0  0
   61.6229   -4.3975  -71.3124 C   0  0  0  0  0  0  0  0  0  0  0  0
   64.2100   -8.6678  -68.8233 C   0  0  0  0  0  0  0  0  0  0  0  0
   65.8447   -4.1714  -68.5233 C   0  0  0  0  0  0  0  0  0  0  0  0
   67.3867   -5.5816  -67.2911 C   0  0  0  0  0  0  0  0  0  0  0  0
   64.2170   -7.2338  -66.8103 C   0  0  0  0  0  0  0  0  0  0  0  0
   71.8348   -3.2702  -64.9546 C   0  0  0  0  0  0  0  0  0  0  0  0
   66.5062   -6.5852  -67.2956 N   0  0  0  0  0  0  0  0  0  0  0  0
   72.0782   -4.3860  -65.7877 C   0  0  0  0  0  0  0  0  0  0  0  0
   60.5836   -6.4314  -70.8233 F   0  0  0  0  0  0  0  0  0  0  0  0
   62.6714   -3.5402  -71.1489 C   0  0  0  0  0  0  0  0  0  0  0  0
   68.9654   -3.5473  -66.9450 N   0  0  0  0  0  0  0  0  0  0  0  0
   63.6757   -9.9314  -69.4011 C   0  0  0  0  0  0  0  0  0  0  0  0
   60.6298  -10.5709  -67.6256 O   0  0  0  0  0  0  0  0  0  0  0  0
   70.0787   -3.6114  -66.3549 N   0  0  0  0  0  0  0  0  0  0  0  0
  1 14  2  0
  1 20  1  0
  2  9  2  0
  2 18  1  0
  2 26  1  0
  3 12  2  0
  4 19  1  0
  4 22  1  0
  5 11  1  0
  5 20  1  0
  5 21  1  0
  6 23  1  0
  6 31  1  0
  7 16  1  0
  7 22  1  0
  7 24  1  0
  8 11  2  0
  9 10  1  0
 10 16  1  0
 10 17  2  0
 11 28  1  0
 12 15  1  0
 12 30  1  0
 13 25  1  0
 13 31  1  0
 14 17  1  0
 15 29  1  0
 16 20  2  0
 17 27  1  0
 18 27  2  0
 19 29  1  0
 21 24  2  0
 23 25  1  0
 28 31  1  0
M  END
>  <ID>  (1) 
conformer_0

$$$$
