
     RDKit          3D

 34 40  0  0  0  0  0  0  0  0999 V2000
   67.3569   -3.2681  -68.0856 C   0  0  0  0  0  0  0  0  0  0  0  0
   67.3812   -5.6045  -67.6324 C   0  0  0  0  0  0  0  0  0  0  0  0
   71.0433   -3.1996  -66.1477 N   0  0  0  0  0  0  0  0  0  0  0  0
   69.6836   -3.4636  -66.2968 C   0  0  0  0  0  0  0  0  0  0  0  0
   62.1827   -5.2842  -69.9335 C   0  0  0  0  0  0  0  0  0  0  0  0
   63.9359   -3.5940  -69.7027 C   0  0  0  0  0  0  0  0  0  0  0  0
   63.4149   -9.6663  -70.7610 C   0  0  0  0  0  0  0  0  0  0  0  0
   62.8665   -8.8066  -71.9614 C   0  0  0  0  0  0  0  0  0  0  0  0
   61.6957  -10.1359  -68.8676 C   0  0  0  0  0  0  0  0  0  0  0  0
   63.9933   -6.1305  -68.8195 C   0  0  0  0  0  0  0  0  0  0  0  0
   66.0298   -5.1596  -67.9803 C   0  0  0  0  0  0  0  0  0  0  0  0
   61.3509   -4.3312  -70.4835 C   0  0  0  0  0  0  0  0  0  0  0  0
   65.2813   -7.2445  -67.0071 C   0  0  0  0  0  0  0  0  0  0  0  0
   68.9500   -2.1708  -66.4216 C   0  0  0  0  0  0  0  0  0  0  0  0
   66.1291   -3.9041  -68.5948 O   0  0  0  0  0  0  0  0  0  0  0  0
   61.9505   -6.7349  -69.7416 O   0  0  0  0  0  0  0  0  0  0  0  0
   65.2779   -6.4227  -68.2579 C   0  0  0  0  0  0  0  0  0  0  0  0
   69.4044   -4.3863  -67.3550 C   0  0  0  0  0  0  0  0  0  0  0  0
   60.0502   -4.6334  -70.7340 O   0  0  0  0  0  0  0  0  0  0  0  0
   65.5958   -1.9073  -69.6131 O   0  0  0  0  0  0  0  0  0  0  0  0
   65.2483   -3.0950  -69.3181 C   0  0  0  0  0  0  0  0  0  0  0  0
   63.1149   -2.7131  -70.3622 C   0  0  0  0  0  0  0  0  0  0  0  0
   62.2467  -10.5053  -70.2392 C   0  0  0  0  0  0  0  0  0  0  0  0
   71.3496   -1.9202  -66.6835 C   0  0  0  0  0  0  0  0  0  0  0  0
   61.8527   -3.0560  -70.7576 C   0  0  0  0  0  0  0  0  0  0  0  0
   67.7630   -2.1320  -67.2539 C   0  0  0  0  0  0  0  0  0  0  0  0
   62.6840   -9.5601  -67.9961 N   0  0  0  0  0  0  0  0  0  0  0  0
   63.7285   -8.5884  -68.4499 C   0  0  0  0  0  0  0  0  0  0  0  0
   70.0652   -1.1793  -66.5922 C   0  0  0  0  0  0  0  0  0  0  0  0
   64.4170   -9.3236  -69.6474 C   0  0  0  0  0  0  0  0  0  0  0  0
   64.5100   -8.4999  -67.1507 C   0  0  0  0  0  0  0  0  0  0  0  0
   63.4405   -4.9316  -69.4757 C   0  0  0  0  0  0  0  0  0  0  0  0
   68.1418   -4.4107  -67.7418 C   0  0  0  0  0  0  0  0  0  0  0  0
   63.0715   -7.2996  -68.9721 C   0  0  0  0  0  0  0  0  0  0  0  0
  1 26  1  0
  1 33  1  0
  2 11  1  0
  2 33  1  0
  3  4  1  0
  3 24  1  0
  4 14  1  0
  4 18  1  0
  5 12  2  0
  5 16  1  0
  5 32  1  0
  6 21  1  0
  6 22  1  0
  6 32  2  0
  7  8  1  0
  7 23  1  0
  7 30  1  0
  9 23  1  0
  9 27  1  0
 10 17  1  0
 10 32  1  0
 10 34  2  0
 11 15  1  0
 11 17  1  0
 12 19  1  0
 12 25  1  0
 13 17  1  0
 13 31  1  0
 14 26  1  0
 14 29  1  0
 15 21  1  0
 16 34  1  0
 18 33  1  0
 20 21  2  0
 22 25  2  0
 24 29  1  0
 27 28  1  0
 28 30  1  0
 28 31  1  0
 28 34  1  0
M  END
>  <ID>  (1) 
conformer_0

$$$$
