
     RDKit          3D

 25 28  0  0  0  0  0  0  0  0999 V2000
   67.4676   -4.3047  -67.6982 C   0  0  0  0  0  0  0  0  0  0  0  0
   64.8563   -6.9356  -67.8193 C   0  0  0  0  0  0  0  0  0  0  0  0
   65.3971   -7.5354  -66.6910 F   0  0  0  0  0  0  0  0  0  0  0  0
   68.4802   -2.2926  -67.0959 C   0  0  0  0  0  0  0  0  0  0  0  0
   65.0446   -2.3003  -69.7900 C   0  0  0  0  0  0  0  0  0  0  0  0
   69.8473   -4.2002  -66.5988 C   0  0  0  0  0  0  0  0  0  0  0  0
   63.8073   -7.7205  -68.3556 C   0  0  0  0  0  0  0  0  0  0  0  0
   62.9451  -10.2323  -68.6616 C   0  0  0  0  0  0  0  0  0  0  0  0
   66.6633   -3.1830  -68.2264 C   0  0  0  0  0  0  0  0  0  0  0  0
   61.0961  -11.7132  -68.6568 O   0  0  0  0  0  0  0  0  0  0  0  0
   67.2904   -1.9633  -67.8190 C   0  0  0  0  0  0  0  0  0  0  0  0
   70.4672   -1.9663  -65.7534 C   0  0  0  0  0  0  0  0  0  0  0  0
   61.4965  -10.5333  -68.4456 C   0  0  0  0  0  0  0  0  0  0  0  0
   65.5009   -3.3599  -68.9451 C   0  0  0  0  0  0  0  0  0  0  0  0
   69.3228   -1.4527  -66.3930 C   0  0  0  0  0  0  0  0  0  0  0  0
   66.8295   -5.5151  -67.7325 C   0  0  0  0  0  0  0  0  0  0  0  0
   62.7286   -5.8789  -69.5657 C   0  0  0  0  0  0  0  0  0  0  0  0
   68.6794   -3.7570  -67.1204 C   0  0  0  0  0  0  0  0  0  0  0  0
   70.7284   -3.3594  -65.8879 C   0  0  0  0  0  0  0  0  0  0  0  0
   63.8105   -9.2147  -68.0525 C   0  0  0  0  0  0  0  0  0  0  0  0
   60.7346   -9.7106  -67.9068 O   0  0  0  0  0  0  0  0  0  0  0  0
   65.4776   -5.6910  -68.1765 C   0  0  0  0  0  0  0  0  0  0  0  0
   63.5878   -4.8557  -69.3976 C   0  0  0  0  0  0  0  0  0  0  0  0
   62.7697   -7.1869  -69.1439 C   0  0  0  0  0  0  0  0  0  0  0  0
   64.8231   -4.6170  -68.8671 C   0  0  0  0  0  0  0  0  0  0  0  0
  1  9  1  0
  1 16  2  0
  1 18  1  0
  2  3  1  0
  2  7  1  0
  2 22  1  0
  4 11  1  0
  4 15  2  0
  4 18  1  0
  5 14  1  0
  6 18  2  0
  6 19  1  0
  7 20  1  0
  7 24  2  0
  8 13  1  0
  8 20  1  0
  9 11  1  0
  9 14  1  0
 10 13  2  0
 12 15  1  0
 12 19  2  0
 13 21  1  0
 14 25  1  0
 16 22  1  0
 17 23  2  0
 17 24  1  0
 22 25  2  0
 23 25  1  0
M  END
>  <ID>  (1) 
conformer_0

$$$$
