
     RDKit          3D

 23 25  0  0  0  0  0  0  0  0999 V2000
   62.9607   -6.9161  -70.5691 C   0  0  0  0  0  0  0  0  0  0  0  0
   67.6687   -4.8183  -67.3352 C   0  0  0  0  0  0  0  0  0  0  0  0
   65.3737   -5.5161  -68.3434 C   0  0  0  0  0  0  0  0  0  0  0  0
   66.6264   -4.6261  -68.3039 C   0  0  0  0  0  0  0  0  0  0  0  0
   68.2488   -2.3807  -67.2812 C   0  0  0  0  0  0  0  0  0  0  0  0
   63.6711   -9.5675  -68.0814 C   0  0  0  0  0  0  0  0  0  0  0  0
   62.6456   -6.7573  -68.2584 O   0  0  0  0  0  0  0  0  0  0  0  0
   63.5847   -7.3131  -69.1702 C   0  0  0  0  0  0  0  0  0  0  0  0
   61.8217   -7.9623  -70.8570 C   0  0  0  0  0  0  0  0  0  0  0  0
   68.6822   -1.5285  -66.0991 C   0  0  0  0  0  0  0  0  0  0  0  0
   64.2068   -4.5782  -68.7176 C   0  0  0  0  0  0  0  0  0  0  0  0
   62.2526   -9.2633  -70.1564 C   0  0  0  0  0  0  0  0  0  0  0  0
   60.4914   -7.6281  -70.4650 O   0  0  0  0  0  0  0  0  0  0  0  0
   68.7219   -3.8091  -67.2831 C   0  0  0  0  0  0  0  0  0  0  0  0
   63.5109   -8.8680  -69.3752 C   0  0  0  0  0  0  0  0  0  0  0  0
   65.0471   -6.8993  -68.8557 C   0  0  0  0  0  0  0  0  0  0  0  0
   69.9408   -1.9947  -65.5584 C   0  0  0  0  0  0  0  0  0  0  0  0
   61.3355  -10.0587  -69.4687 O   0  0  0  0  0  0  0  0  0  0  0  0
   66.4210   -3.2153  -68.6868 C   0  0  0  0  0  0  0  0  0  0  0  0
   66.8107   -2.2874  -67.6423 C   0  0  0  0  0  0  0  0  0  0  0  0
   64.4893   -8.8299  -67.0044 C   0  0  0  0  0  0  0  0  0  0  0  0
   64.6131   -7.3748  -66.5101 C   0  0  0  0  0  0  0  0  0  0  0  0
   65.5651   -6.6245  -67.4521 C   0  0  0  0  0  0  0  0  0  0  0  0
  1  8  1  0
  1  9  1  0
  2  4  1  0
  2 14  1  0
  3  4  1  0
  3 11  1  0
  3 16  1  0
  3 23  1  0
  4 19  1  0
  5 10  1  0
  5 14  1  0
  5 20  1  0
  6 15  1  0
  6 21  1  0
  7  8  1  0
  8 15  1  0
  8 16  1  0
  9 12  1  0
  9 13  1  0
 10 17  1  0
 12 15  1  0
 12 18  1  0
 19 20  1  0
 21 22  1  0
 22 23  1  0
M  END
>  <ID>  (1) 
conformer_0

$$$$
