
     RDKit          3D

 26 29  0  0  0  0  0  0  0  0999 V2000
   63.0684   -7.4606  -70.2054 C   0  0  0  0  0  0  0  0  0  0  0  0
   63.4346   -9.7291  -68.5305 C   0  0  0  0  0  0  0  0  0  0  0  0
   66.1549   -7.3870  -67.2082 C   0  0  0  0  0  0  0  0  0  0  0  0
   62.0852   -9.5406  -69.1213 C   0  0  0  0  0  0  0  0  0  0  0  0
   66.9300   -5.2806  -68.1740 C   0  0  0  0  0  0  0  0  0  0  0  0
   60.9835  -10.3493  -69.0773 O   0  0  0  0  0  0  0  0  0  0  0  0
   67.6912   -1.7644  -68.0077 C   0  0  0  0  0  0  0  0  0  0  0  0
   66.7023   -3.9336  -68.5385 C   0  0  0  0  0  0  0  0  0  0  0  0
   69.3838   -1.4660  -66.3500 N   0  0  0  0  0  0  0  0  0  0  0  0
   65.6678   -3.0322  -69.0200 C   0  0  0  0  0  0  0  0  0  0  0  0
   68.6435   -4.0666  -67.3582 C   0  0  0  0  0  0  0  0  0  0  0  0
   68.7800   -1.0401  -67.4941 C   0  0  0  0  0  0  0  0  0  0  0  0
   65.2883   -8.5954  -67.3036 C   0  0  0  0  0  0  0  0  0  0  0  0
   67.8088   -3.1782  -67.9908 C   0  0  0  0  0  0  0  0  0  0  0  0
   65.9374   -6.3200  -68.2120 C   0  0  0  0  0  0  0  0  0  0  0  0
   64.7578   -6.1032  -69.0363 C   0  0  0  0  0  0  0  0  0  0  0  0
   69.7573   -3.8322  -66.5784 C   0  0  0  0  0  0  0  0  0  0  0  0
   62.0388   -8.5174  -70.1877 C   0  0  0  0  0  0  0  0  0  0  0  0
   62.8028   -6.9437  -67.6431 C   0  0  0  0  0  0  0  0  0  0  0  0
   63.8534   -4.9205  -69.4648 C   0  0  0  0  0  0  0  0  0  0  0  0
   70.8600   -2.5287  -64.8037 C   0  0  0  0  0  0  0  0  0  0  0  0
   63.3324   -6.4656  -66.3373 C   0  0  0  0  0  0  0  0  0  0  0  0
   64.4746   -8.6260  -68.5616 C   0  0  0  0  0  0  0  0  0  0  0  0
   63.7547   -7.2940  -68.8312 C   0  0  0  0  0  0  0  0  0  0  0  0
   68.0880   -5.3909  -67.4110 C   0  0  0  0  0  0  0  0  0  0  0  0
   69.9626   -2.6065  -65.9080 C   0  0  0  0  0  0  0  0  0  0  0  0
  1 18  1  0
  1 24  1  0
  2  4  1  0
  2 23  1  0
  3 13  1  0
  3 15  1  0
  4  6  1  0
  4 18  1  0
  5  8  2  0
  5 15  1  0
  5 25  1  0
  7 12  1  0
  7 14  1  0
  8 10  1  0
  8 14  1  0
  9 12  1  0
  9 26  1  0
 11 14  2  0
 11 17  1  0
 11 25  1  0
 13 23  1  0
 15 16  1  0
 16 20  1  0
 16 24  1  0
 17 26  1  0
 19 22  1  0
 19 24  1  0
 21 26  1  0
 23 24  1  0
M  END
>  <ID>  (1) 
conformer_0

$$$$
