
     RDKit          3D

 21 23  0  0  0  0  0  0  0  0999 V2000
   63.0901   -5.9598  -69.2006 C   0  0  0  0  0  0  0  0  0  0  0  0
   68.3648   -2.9968  -65.9326 C   0  0  0  0  0  0  0  0  0  0  0  0
   67.0943   -2.4001  -66.5105 C   0  0  0  0  0  0  0  0  0  0  0  0
   63.9935   -8.2104  -68.7166 C   0  0  0  0  0  0  0  0  0  0  0  0
   62.0891   -8.5726  -70.0895 C   0  0  0  0  0  0  0  0  0  0  0  0
   67.1200   -3.4928  -68.6010 C   0  0  0  0  0  0  0  0  0  0  0  0
   63.0993   -7.4515  -69.7145 C   0  0  0  0  0  0  0  0  0  0  0  0
   64.1511   -5.8128  -68.0519 C   0  0  0  0  0  0  0  0  0  0  0  0
   64.6553   -7.8610  -66.3380 C   0  0  0  0  0  0  0  0  0  0  0  0
   63.1701   -9.3091  -68.1918 N   0  0  0  0  0  0  0  0  0  0  0  0
   64.3549   -7.2455  -67.6331 C   0  0  0  0  0  0  0  0  0  0  0  0
   70.5356   -1.8383  -65.6142 C   0  0  0  0  0  0  0  0  0  0  0  0
   68.8745   -1.3803  -67.6086 C   0  0  0  0  0  0  0  0  0  0  0  0
   60.8925   -9.7431  -68.3448 O   0  0  0  0  0  0  0  0  0  0  0  0
   67.5720   -2.1243  -67.9933 C   0  0  0  0  0  0  0  0  0  0  0  0
   65.4720   -5.2915  -68.6388 C   0  0  0  0  0  0  0  0  0  0  0  0
   69.4458   -2.1434  -66.5275 C   0  0  0  0  0  0  0  0  0  0  0  0
   67.8574   -4.0563  -69.3552 O   0  0  0  0  0  0  0  0  0  0  0  0
   65.8217   -3.9445  -68.2674 N   0  0  0  0  0  0  0  0  0  0  0  0
   66.6661   -6.2653  -68.3660 C   0  0  0  0  0  0  0  0  0  0  0  0
   61.9924   -9.5276  -68.9811 C   0  0  0  0  0  0  0  0  0  0  0  0
  1  7  1  0
  1  8  1  0
  2  3  1  0
  2 17  1  0
  3 15  1  0
  4  7  1  0
  4 10  1  0
  4 11  1  0
  5  7  1  0
  5 21  1  0
  6 15  1  0
  6 18  2  0
  6 19  1  0
  8 11  1  0
  8 16  1  0
  9 11  1  0
 10 21  1  0
 12 17  1  0
 13 15  1  0
 13 17  1  0
 14 21  1  0
 16 19  1  0
 16 20  1  0
M  END
>  <ID>  (1) 
conformer_0

$$$$
