
     RDKit          3D

 14 14  0  0  0  0  0  0  0  0999 V2000
   33.6002   20.4371   35.8603 O   0  0  0  0  0  0  0  0  0  0  0  0
   33.9002   19.2371   36.5603 C   0  0  0  0  0  0  0  0  0  0  0  0
   33.0002   18.1371   36.9603 C   0  0  0  0  0  0  0  0  0  0  0  0
   35.3002   18.7371   36.6603 C   0  0  0  0  0  0  0  0  0  0  0  0
   33.8002   17.1371   37.5603 O   0  0  0  0  0  0  0  0  0  0  0  0
   35.2002   17.2371   37.1603 C   0  0  0  0  0  0  0  0  0  0  0  0
   31.7002   18.1371   36.5603 C   0  0  0  0  0  0  0  0  0  0  0  0
   31.5002   18.9371   35.3603 O   0  0  0  0  0  0  0  0  0  0  0  0
   36.5002   19.3371   36.6603 O   0  0  0  0  0  0  0  0  0  0  0  0
   37.7002   19.6371   35.8603 P   0  0  0  0  0  4  0  0  0  0  0  0
   38.2002   20.9371   35.8603 O   0  0  0  0  0  1  0  0  0  0  0  0
   37.8002   18.5371   34.8603 O   0  0  0  0  0  0  0  0  0  0  0  0
   36.5002   17.1371   37.8603 O   0  0  0  0  0  0  0  0  0  0  0  0
   38.7002   19.1371   36.8603 O   0  0  0  0  0  0  0  0  0  0  0  0
  2  1  1  0
  3  2  1  0
  4  2  1  0
  5  3  1  0
  6  4  1  0
  6  5  1  0
  7  3  1  0
  8  7  1  0
  9  4  1  0
 10  9  1  0
 11 10  2  0
 12 10  1  0
 13  6  1  0
 14 10  1  0
M  END
>  <ID>  (1) 
conformer_0

$$$$
