
     RDKit          3D

 14 14  0  0  0  0  0  0  0  0999 V2000
   33.4978   20.5935   36.2159 O   0  0  0  0  0  0  0  0  0  0  0  0
   33.7978   19.2935   36.5159 C   0  0  0  0  0  0  0  0  0  0  0  0
   32.8978   18.1935   36.9159 C   0  0  0  0  0  0  0  0  0  0  0  0
   31.5978   18.7935   37.1159 O   0  0  0  0  0  0  0  0  0  0  0  0
   35.1978   18.7935   36.4159 C   0  0  0  0  0  0  0  0  0  0  0  0
   35.2978   17.6935   37.2159 O   0  0  0  0  0  0  0  0  0  0  0  0
   33.7978   17.0935   37.3159 C   0  0  0  0  0  0  0  0  0  0  0  0
   36.1978   19.6935   36.3159 O   0  0  0  0  0  0  0  0  0  0  0  0
   37.5978   19.5935   35.8159 P   0  0  0  0  0  4  0  0  0  0  0  0
   38.2978   20.8935   35.8159 O   0  0  0  0  0  1  0  0  0  0  0  0
   37.9978   18.4935   35.0159 O   0  0  0  0  0  0  0  0  0  0  0  0
   33.4978   16.0935   38.3159 C   0  0  0  0  0  0  0  0  0  0  0  0
   34.7978   15.5935   38.8159 O   0  0  0  0  0  0  0  0  0  0  0  0
   38.3978   18.9935   36.9159 O   0  0  0  0  0  0  0  0  0  0  0  0
  2  1  1  0
  3  2  2  0
  4  3  1  0
  5  2  1  0
  6  5  1  0
  7  3  1  0
  7  6  1  0
  8  5  1  0
  9  8  1  0
 10  9  2  0
 11  9  1  0
 12  7  1  0
 13 12  1  0
 14  9  1  0
M  END
>  <ID>  (1) 
conformer_0

$$$$
