
     RDKit          3D

 12 12  0  0  0  0  0  0  0  0999 V2000
   33.7530   20.2885   35.9705 O   0  0  0  0  0  0  0  0  0  0  0  0
   34.0530   19.1885   36.5705 C   0  0  0  0  0  0  0  0  0  0  0  0
   33.4530   17.9885   36.9705 C   0  0  0  0  0  0  0  0  0  0  0  0
   32.0530   17.9885   37.2705 C   0  0  0  0  0  0  0  0  0  0  0  0
   34.2530   16.9885   37.5705 O   0  0  0  0  0  0  0  0  0  0  0  0
   35.4530   18.7885   36.4705 C   0  0  0  0  0  0  0  0  0  0  0  0
   35.6530   17.4885   37.1705 C   0  0  0  0  0  0  0  0  0  0  0  0
   36.4530   19.6885   36.5705 O   0  0  0  0  0  0  0  0  0  0  0  0
   36.7530   17.4885   37.9705 O   0  0  0  0  0  0  0  0  0  0  0  0
   31.2530   18.6885   36.3705 O   0  0  0  0  0  0  0  0  0  0  0  0
   37.6530   19.5885   36.0705 C   0  0  0  0  0  0  0  0  0  0  0  0
   38.2530   20.6885   35.7705 O   0  0  0  0  0  0  0  0  0  0  0  0
  2  1  1  0
  3  2  1  0
  4  3  1  0
  5  3  1  0
  6  2  1  0
  7  5  1  0
  7  6  1  0
  8  6  1  0
  9  7  1  0
 10  4  1  0
 11  8  1  0
 12 11  1  0
M  END
>  <ID>  (1) 
conformer_0

$$$$
