
     RDKit          3D

 10 10  0  0  0  0  0  0  0  0999 V2000
   33.7432   20.4988   35.9320 O   0  0  0  0  0  0  0  0  0  0  0  0
   34.3432   19.2988   36.4320 C   0  0  0  0  0  0  0  0  0  0  0  0
   33.3432   18.2988   36.8320 C   0  0  0  0  0  0  0  0  0  0  0  0
   35.7432   18.8988   36.4320 C   0  0  0  0  0  0  0  0  0  0  0  0
   32.2432   17.8988   35.9320 C   0  0  0  0  0  0  0  0  0  0  0  0
   31.6432   18.9988   35.1320 O   0  0  0  0  0  0  0  0  0  0  0  0
   34.1432   17.0988   37.2320 O   0  0  0  0  0  0  0  0  0  0  0  0
   35.5432   17.4988   37.1320 C   0  0  0  0  0  0  0  0  0  0  0  0
   36.4432   17.0988   37.8320 O   0  0  0  0  0  0  0  0  0  0  0  0
   36.8432   19.6988   36.5320 O   0  0  0  0  0  0  0  0  0  0  0  0
  2  1  1  0
  3  2  1  0
  4  2  1  0
  5  3  1  0
  6  5  1  0
  7  3  1  0
  8  4  1  0
  8  7  1  0
  9  8  2  0
 10  4  1  0
M  END
>  <ID>  (1) 
conformer_0

$$$$
