
     RDKit          3D

 16 16  0  0  0  0  0  0  0  0999 V2000
   33.7469   20.4832   35.6501 O   0  0  0  0  0  0  0  0  0  0  0  0
   33.9469   19.2832   36.4501 C   0  0  0  0  0  0  0  0  0  0  0  0
   32.7469   18.5832   36.8501 C   0  0  0  0  0  0  0  0  0  0  0  0
   35.3469   18.7832   36.5501 C   0  0  0  0  0  0  0  0  0  0  0  0
   31.5469   18.9832   36.8501 O   0  0  0  0  0  0  0  0  0  0  0  0
   32.9469   17.1832   37.3501 C   0  0  0  0  0  0  0  0  0  0  0  0
   34.3469   17.0832   37.8501 O   0  0  0  0  0  0  0  0  0  0  0  0
   35.4469   17.4832   37.2501 C   0  0  0  0  0  0  0  0  0  0  0  0
   36.3469   19.6832   36.3501 O   0  0  0  0  0  0  0  0  0  0  0  0
   36.6469   17.3832   38.0501 O   0  0  0  0  0  0  0  0  0  0  0  0
   37.6469   19.5832   35.6501 P   0  0  0  0  0  4  0  0  0  0  0  0
   38.1469   20.9832   35.7501 O   0  0  0  0  0  1  0  0  0  0  0  0
   38.4469   18.4832   36.0501 O   0  0  0  0  0  0  0  0  0  0  0  0
   31.9469   16.4832   38.0501 C   0  0  0  0  0  0  0  0  0  0  0  0
   32.3469   15.0832   38.1501 O   0  0  0  0  0  0  0  0  0  0  0  0
   37.1469   19.3832   34.2501 O   0  0  0  0  0  0  0  0  0  0  0  0
  2  1  1  0
  3  2  1  0
  4  2  1  0
  5  3  2  0
  6  3  1  0
  7  6  1  0
  8  4  1  0
  8  7  1  0
  9  4  1  0
 10  8  1  0
 11  9  1  0
 12 11  2  0
 13 11  1  0
 14  6  1  0
 15 14  1  0
 16 11  1  0
M  END
>  <ID>  (1) 
conformer_0

$$$$
