
     RDKit          3D

 12 12  0  0  0  0  0  0  0  0999 V2000
   33.7432   20.4988   35.9320 O   0  0  0  0  0  0  0  0  0  0  0  0
   34.0432   19.2988   36.5320 C   0  0  0  0  0  0  0  0  0  0  0  0
   33.1432   18.2988   36.7320 C   0  0  0  0  0  0  0  0  0  0  0  0
   35.4432   18.8988   36.6320 C   0  0  0  0  0  0  0  0  0  0  0  0
   31.7432   18.7988   36.9320 O   0  0  0  0  0  0  0  0  0  0  0  0
   35.6432   17.4988   37.1320 C   0  0  0  0  0  0  0  0  0  0  0  0
   36.5432   19.5988   36.5320 O   0  0  0  0  0  0  0  0  0  0  0  0
   34.6432   16.6988   37.7319 O   0  0  0  0  0  0  0  0  0  0  0  0
   33.2432   16.9988   37.4320 C   0  0  0  0  0  0  0  0  0  0  0  0
   36.7432   17.4988   38.0320 O   0  0  0  0  0  0  0  0  0  0  0  0
   32.0432   16.3988   38.0320 C   0  0  0  0  0  0  0  0  0  0  0  0
   32.5432   15.0988   38.5320 O   0  0  0  0  0  0  0  0  0  0  0  0
  2  1  1  0
  3  2  1  0
  4  2  1  0
  5  3  1  0
  6  4  1  0
  7  4  1  0
  8  6  1  0
  9  3  1  0
  9  8  1  0
 10  6  1  0
 11  9  1  0
 12 11  1  0
M  END
>  <ID>  (1) 
conformer_0

$$$$
