
     RDKit          3D

 18 18  0  0  0  0  0  0  0  0999 V2000
   31.9557   19.1169   35.3093 O   0  0  0  0  0  0  0  0  0  0  0  0
   32.6557   18.5169   36.4093 C   0  0  0  0  0  0  0  0  0  0  0  0
   33.9557   19.1169   36.6093 C   0  0  0  0  0  0  0  0  0  0  0  0
   34.0557   20.3169   35.9093 O   0  0  0  0  0  0  0  0  0  0  0  0
   31.8557   17.8169   37.4093 C   0  0  0  0  0  0  0  0  0  0  0  0
   30.6557   18.5169   37.7093 O   0  0  0  0  0  0  0  0  0  0  0  0
   35.0557   18.2169   37.0093 C   0  0  0  0  0  0  0  0  0  0  0  0
   34.2557   17.1169   37.6093 O   0  0  0  0  0  0  0  0  0  0  0  0
   31.9557   16.4169   37.6093 C   0  0  0  0  0  0  0  0  0  0  0  0
   31.0557   15.5169   38.1093 O   0  0  0  0  0  0  0  0  0  0  0  0
   33.3557   16.2169   37.3093 C   0  0  0  0  0  0  0  0  0  0  0  0
   36.4557   18.5169   36.9093 C   0  0  0  0  0  0  0  0  0  0  0  0
   36.7557   19.8169   36.5093 O   0  0  0  0  0  0  0  0  0  0  0  0
   37.7557   19.6169   35.5093 P   0  0  0  0  0  4  0  0  0  0  0  0
   39.1557   19.7169   35.9093 O   0  0  0  0  0  1  0  0  0  0  0  0
   37.1557   18.7169   34.5093 O   0  0  0  0  0  0  0  0  0  0  0  0
   37.4557   20.8169   34.7093 O   0  0  0  0  0  0  0  0  0  0  0  0
   33.7557   14.9169   37.6093 O   0  0  0  0  0  0  0  0  0  0  0  0
  2  1  1  0
  3  2  1  0
  4  3  1  0
  5  2  1  0
  6  5  1  0
  7  3  1  0
  8  7  1  0
  9  5  1  0
 10  9  1  0
 11  8  1  0
 11  9  1  0
 12  7  2  3
 13 12  1  0
 14 13  1  0
 15 14  2  0
 16 14  1  0
 17 14  1  0
 18 11  2  0
M  END
>  <ID>  (1) 
conformer_0

$$$$
