
     RDKit          3D

 14 14  0  0  0  0  0  0  0  0999 V2000
   33.7469   20.4832   35.6501 O   0  0  0  0  0  0  0  0  0  0  0  0
   33.7469   19.2832   36.4501 C   0  0  0  0  0  0  0  0  0  0  0  0
   35.0469   18.5832   36.5501 C   0  0  0  0  0  0  0  0  0  0  0  0
   32.5469   18.4832   36.6501 C   0  0  0  0  0  0  0  0  0  0  0  0
   31.6469   18.8832   35.5501 O   0  0  0  0  0  0  0  0  0  0  0  0
   34.5469   17.3832   37.2501 O   0  0  0  0  0  0  0  0  0  0  0  0
   33.0469   17.2832   37.2501 C   0  0  0  0  0  0  0  0  0  0  0  0
   36.3469   19.0832   36.5501 C   0  0  0  0  0  0  0  0  0  0  0  0
   37.3469   18.3832   37.0501 O   0  0  0  0  0  0  0  0  0  0  0  0
   32.2469   16.3832   38.0501 C   0  0  0  0  0  0  0  0  0  0  0  0
   31.0469   17.1832   38.1501 O   0  0  0  0  0  0  0  0  0  0  0  0
   36.7469   19.6832   35.2501 C   0  0  0  0  0  0  0  0  0  0  0  0
   37.8469   20.5832   35.6501 O   0  0  0  0  0  0  0  0  0  0  0  0
   35.8469   19.3832   34.2501 O   0  0  0  0  0  0  0  0  0  0  0  0
  2  1  1  0
  3  2  1  0
  4  2  1  0
  5  4  1  0
  6  3  1  0
  7  4  1  0
  7  6  1  0
  8  3  1  0
  9  8  1  0
 10  7  1  0
 11 10  1  0
 12  8  1  0
 13 12  2  0
 14 12  1  0
M  END
>  <ID>  (1) 
conformer_0

$$$$
