
     RDKit          3D

 10 10  0  0  0  0  0  0  0  0999 V2000
   33.7432   20.4988   35.9320 O   0  0  0  0  0  0  0  0  0  0  0  0
   34.3432   19.2988   36.4320 C   0  0  0  0  0  0  0  0  0  0  0  0
   33.8432   18.0988   36.9320 C   0  0  0  0  0  0  0  0  0  0  0  0
   32.4432   17.8988   37.0320 C   0  0  0  0  0  0  0  0  0  0  0  0
   31.6432   18.7988   36.3320 O   0  0  0  0  0  0  0  0  0  0  0  0
   34.5432   16.8988   37.4320 O   0  0  0  0  0  0  0  0  0  0  0  0
   32.0432   16.4988   37.1320 C   0  0  0  0  0  0  0  0  0  0  0  0
   33.4432   15.8988   37.6320 C   0  0  0  0  0  0  0  0  0  0  0  0
   33.2432   14.7988   38.2320 O   0  0  0  0  0  0  0  0  0  0  0  0
   31.0432   16.3988   38.0320 O   0  0  0  0  0  0  0  0  0  0  0  0
  2  1  1  0
  3  2  2  3
  4  3  1  0
  5  4  1  0
  6  3  1  0
  7  4  1  0
  8  6  1  0
  8  7  1  0
  9  8  2  0
 10  7  1  0
M  END
>  <ID>  (1) 
conformer_0

$$$$
