
     RDKit          3D

 16 16  0  0  0  0  0  0  0  0999 V2000
   33.7432   20.4988   35.9320 O   0  0  0  0  0  0  0  0  0  0  0  0
   34.0432   19.2988   36.5320 C   0  0  0  0  0  0  0  0  0  0  0  0
   33.1432   18.1988   36.8320 C   0  0  0  0  0  0  0  0  0  0  0  0
   35.4432   18.8988   36.4320 C   0  0  0  0  0  0  0  0  0  0  0  0
   31.7432   18.2988   37.1320 C   0  0  0  0  0  0  0  0  0  0  0  0
   33.9432   17.1988   37.4319 O   0  0  0  0  0  0  0  0  0  0  0  0
   35.3432   17.4988   37.1320 C   0  0  0  0  0  0  0  0  0  0  0  0
   36.0432   19.4988   35.2320 O   0  0  0  0  0  0  0  0  0  0  0  0
   37.4432   19.5988   34.9320 P   0  0  0  0  0  4  0  0  0  0  0  0
   38.0432   20.6988   35.7320 O   0  0  0  0  0  0  0  0  0  0  0  0
   38.2432   18.8988   33.9320 O   0  0  0  0  0  1  0  0  0  0  0  0
   31.2432   17.3988   38.1320 O   0  0  0  0  0  0  0  0  0  0  0  0
   36.5432   16.9988   37.8320 C   0  0  0  0  0  0  0  0  0  0  0  0
   36.0432   15.8988   38.6320 O   0  0  0  0  0  0  0  0  0  0  0  0
   38.2432   19.1988   36.1320 O   0  0  0  0  0  0  0  0  0  0  0  0
   31.2432   18.7988   35.8320 O   0  0  0  0  0  0  0  0  0  0  0  0
  2  1  1  0
  3  2  1  0
  4  2  1  0
  5  3  1  0
  6  3  1  0
  7  4  1  0
  7  6  1  0
  8  4  1  0
  9  8  1  0
 10  9  1  0
 11  9  2  0
 12  5  2  0
 13  7  1  0
 14 13  1  0
 15  9  1  0
 16  5  1  0
M  END
>  <ID>  (1) 
conformer_0

$$$$
