
     RDKit          3D

 16 16  0  0  0  0  0  0  0  0999 V2000
   33.7432   20.4988   35.9320 O   0  0  0  0  0  0  0  0  0  0  0  0
   34.3432   19.2988   36.4320 C   0  0  0  0  0  0  0  0  0  0  0  0
   33.3432   18.2988   36.8320 C   0  0  0  0  0  0  0  0  0  0  0  0
   32.0432   18.9988   37.0320 O   0  0  0  0  0  0  0  0  0  0  0  0
   35.7432   18.8988   36.5320 C   0  0  0  0  0  0  0  0  0  0  0  0
   33.8432   17.0988   37.4320 C   0  0  0  0  0  0  0  0  0  0  0  0
   36.0432   17.4988   36.3320 C   0  0  0  0  0  0  0  0  0  0  0  0
   36.7432   19.7988   36.5320 O   0  0  0  0  0  0  0  0  0  0  0  0
   37.3432   17.1988   35.7320 O   0  0  0  0  0  0  0  0  0  0  0  0
   35.2432   16.6988   37.2320 C   0  0  0  0  0  0  0  0  0  0  0  0
   32.9432   15.9988   37.6320 O   0  0  0  0  0  0  0  0  0  0  0  0
   35.5432   15.3988   37.4320 O   0  0  0  0  0  0  0  0  0  0  0  0
   30.9432   17.9988   37.0320 C   0  0  0  0  0  0  0  0  0  0  0  0
   29.9432   18.4988   37.8320 O   0  0  0  0  0  0  0  0  0  0  0  0
   30.5432   17.0988   35.9320 C   0  0  0  0  0  0  0  0  0  0  0  0
   29.4432   17.6988   35.2320 O   0  0  0  0  0  0  0  0  0  0  0  0
  2  1  1  0
  3  2  2  0
  4  3  1  0
  5  2  1  0
  6  3  1  0
  7  5  2  0
  8  5  1  0
  9  7  1  0
 10  6  2  0
 10  7  1  0
 11  6  1  0
 12 10  1  0
 13  4  1  0
 14 13  2  0
 15 13  1  0
 16 15  1  0
M  END
>  <ID>  (1) 
conformer_0

$$$$
