
     RDKit          3D

 10 10  0  0  0  0  0  0  0  0999 V2000
   33.5175   20.9452   35.9516 O   0  0  0  0  0  0  0  0  0  0  0  0
   33.8175   19.6452   36.2516 C   0  0  0  0  0  0  0  0  0  0  0  0
   32.8175   18.6452   36.6516 C   0  0  0  0  0  0  0  0  0  0  0  0
   35.2175   19.1452   36.1516 C   0  0  0  0  0  0  0  0  0  0  0  0
   31.6175   19.1452   37.0517 O   0  0  0  0  0  0  0  0  0  0  0  0
   35.3175   17.8452   36.7516 C   0  0  0  0  0  0  0  0  0  0  0  0
   35.9175   19.6452   35.1516 O   0  0  0  0  0  0  0  0  0  0  0  0
   33.7175   17.5452   37.0517 C   0  0  0  0  0  0  0  0  0  0  0  0
   36.1175   17.2452   37.5516 O   0  0  0  0  0  0  0  0  0  0  0  0
   33.8175   16.5452   38.0517 O   0  0  0  0  0  0  0  0  0  0  0  0
  2  1  1  0
  3  2  2  0
  4  2  1  0
  5  3  1  0
  6  4  1  0
  7  4  1  0
  8  3  1  0
  8  6  2  0
  9  6  1  0
 10  8  1  0
M  END
>  <ID>  (1) 
conformer_0

$$$$
