
     RDKit          3D

 17 19  0  0  0  0  0  0  0  0999 V2000
   33.6002   20.4371   35.8603 O   0  0  0  0  0  0  0  0  0  0  0  0
   34.0002   19.2371   36.5603 C   0  0  0  0  0  0  0  0  0  0  0  0
   33.0002   18.3371   36.9603 C   0  0  0  0  0  0  0  0  0  0  0  0
   31.7002   18.8371   36.9603 O   0  0  0  0  0  0  0  0  0  0  0  0
   35.4002   18.7371   36.4603 C   0  0  0  0  0  0  0  0  0  0  0  0
   33.4002   17.1371   37.4603 C   0  0  0  0  0  0  0  0  0  0  0  0
   34.7002   16.7371   37.6603 O   0  0  0  0  0  0  0  0  0  0  0  0
   35.7002   17.5371   37.0603 C   0  0  0  0  0  0  0  0  0  0  0  0
   36.5002   19.7371   36.3603 O   0  0  0  0  0  0  0  0  0  0  0  0
   36.9002   17.6371   37.7603 O   0  0  0  0  0  0  0  0  0  0  0  0
   37.5002   18.8371   36.9603 C   0  0  0  0  0  0  0  0  0  0  0  0
   32.3002   16.2371   37.8603 C   0  0  0  0  0  0  0  0  0  0  0  0
   31.0002   16.5371   37.6603 O   0  0  0  0  0  0  0  0  0  0  0  0
   38.5002   18.7371   35.8603 C   0  0  0  0  0  0  0  0  0  0  0  0
   39.6002   19.5371   35.7603 O   0  0  0  0  0  0  0  0  0  0  0  0
   32.0002   17.9371   35.8603 C   0  0  0  0  0  0  0  0  0  0  0  0
   31.5002   18.9371   34.8603 O   0  0  0  0  0  0  0  0  0  0  0  0
  2  1  1  0
  3  2  1  0
  4  3  1  0
  5  2  1  0
  6  3  1  0
  7  6  1  0
  8  5  1  0
  8  7  1  0
  9  5  1  0
 10  8  1  0
 11  9  1  0
 11 10  1  0
 12  6  2  3
 13 12  1  0
 14 11  1  0
 15 14  1  0
 16  3  1  0
 16  4  1  0
 17 16  1  0
M  END
>  <ID>  (1) 
conformer_0

$$$$
