
     RDKit          3D

 15 14  0  0  0  0  0  0  0  0999 V2000
   38.0456   20.7901   35.8950 O   0  0  0  0  0  1  0  0  0  0  0  0
   37.9456   19.3901   35.6950 P   0  0  0  0  0  4  0  0  0  0  0  0
   38.4456   18.3901   36.6950 O   0  0  0  0  0  0  0  0  0  0  0  0
   38.5456   18.9901   34.3950 O   0  0  0  0  0  0  0  0  0  0  0  0
   36.5456   18.8901   35.4950 O   0  0  0  0  0  0  0  0  0  0  0  0
   35.6456   18.4901   36.4950 C   0  0  0  0  0  0  0  0  0  0  0  0
   34.2456   18.8901   36.5950 C   0  0  0  0  0  0  0  0  0  0  0  0
   33.8456   19.9901   35.8950 O   0  0  0  0  0  0  0  0  0  0  0  0
   33.2456   17.8901   36.8950 C   0  0  0  0  0  0  0  0  0  0  0  0
   31.9456   18.5901   36.9949 C   0  0  0  0  0  0  0  0  0  0  0  0
   31.7456   19.0901   35.5949 O   0  0  0  0  0  0  0  0  0  0  0  0
   33.4456   16.7901   37.6950 O   0  0  0  0  0  0  0  0  0  0  0  0
   30.7456   17.7901   37.3950 C   0  0  0  0  0  0  0  0  0  0  0  0
   29.6456   18.3901   37.6950 O   0  0  0  0  0  0  0  0  0  0  0  0
   33.2456   21.0901   36.0950 O   0  0  0  0  0  0  0  0  0  0  0  0
  2  1  2  0
  3  2  1  0
  4  2  1  0
  5  2  1  0
  6  5  1  0
  7  6  1  0
  8  7  1  0
  9  7  1  0
 10  9  1  0
 11 10  1  0
 12  9  1  0
 13 10  1  0
 14 13  1  0
 15  8  1  0
M  END
>  <ID>  (1) 
conformer_0

$$$$
