
     RDKit          3D

 14 14  0  0  0  0  0  0  0  0999 V2000
   35.5016   19.9205   34.7903 O   0  0  0  0  0  0  0  0  0  0  0  0
   35.3016   19.2205   36.0903 C   0  0  0  0  0  0  0  0  0  0  0  0
   33.9016   19.3205   36.4903 C   0  0  0  0  0  0  0  0  0  0  0  0
   33.3016   20.4205   35.9903 O   0  0  0  0  0  0  0  0  0  0  0  0
   33.1016   18.1205   36.8903 C   0  0  0  0  0  0  0  0  0  0  0  0
   36.1016   18.1205   36.3903 C   0  0  0  0  0  0  0  0  0  0  0  0
   31.7016   18.5205   36.9903 O   0  0  0  0  0  0  0  0  0  0  0  0
   33.9016   16.9205   36.5903 C   0  0  0  0  0  0  0  0  0  0  0  0
   35.2016   17.1205   37.2903 C   0  0  0  0  0  0  0  0  0  0  0  0
   36.6016   17.4205   35.2903 O   0  0  0  0  0  0  0  0  0  0  0  0
   36.0016   16.0205   37.6903 O   0  0  0  0  0  0  0  0  0  0  0  0
   33.2016   15.7205   36.8903 O   0  0  0  0  0  0  0  0  0  0  0  0
   30.7016   18.1205   37.7903 C   0  0  0  0  0  0  0  0  0  0  0  0
   29.5016   18.5205   37.8903 O   0  0  0  0  0  0  0  0  0  0  0  0
  2  1  1  0
  3  2  1  0
  4  3  1  0
  5  3  1  0
  6  2  1  0
  7  5  1  0
  8  5  1  0
  9  6  1  0
  9  8  1  0
 10  6  1  0
 11  9  1  0
 12  8  1  0
 13  7  1  0
 14 13  2  0
M  END
>  <ID>  (1) 
conformer_0

$$$$
