
     RDKit          3D

 15 15  0  0  0  0  0  0  0  0999 V2000
   31.4227   18.6875   35.7785 O   0  0  0  0  0  0  0  0  0  0  0  0
   32.5227   18.1875   36.5785 C   0  0  0  0  0  0  0  0  0  0  0  0
   33.6227   19.1875   36.5785 C   0  0  0  0  0  0  0  0  0  0  0  0
   33.6227   20.4875   36.0785 O   0  0  0  0  0  0  0  0  0  0  0  0
   35.0227   18.6875   36.5785 C   0  0  0  0  0  0  0  0  0  0  0  0
   33.1227   16.8875   36.3785 C   0  0  0  0  0  0  0  0  0  0  0  0
   35.5227   17.3875   36.1785 C   0  0  0  0  0  0  0  0  0  0  0  0
   35.9227   19.6875   36.2785 O   0  0  0  0  0  0  0  0  0  0  0  0
   36.6227   17.5875   35.1785 O   0  0  0  0  0  0  0  0  0  0  0  0
   37.1227   19.1875   35.5785 P   0  0  0  0  0  4  0  0  0  0  0  0
   38.2227   20.1875   35.4785 O   0  0  0  0  0  1  0  0  0  0  0  0
   32.1227   15.7875   36.2785 N   0  0  0  0  0  0  0  0  0  0  0  0
   30.8227   16.3875   36.1785 C   0  0  0  0  0  0  0  0  0  0  0  0
   32.2227   14.7875   37.3785 C   0  0  0  0  0  0  0  0  0  0  0  0
   36.6227   19.3875   34.1785 O   0  0  0  0  0  0  0  0  0  0  0  0
  2  1  1  0
  3  2  1  0
  4  3  1  0
  5  3  1  0
  6  2  1  0
  7  5  1  0
  8  5  1  0
  9  7  1  0
 10  8  1  0
 10  9  1  0
 11 10  2  0
 12  6  1  0
 13 12  1  0
 14 12  1  0
 15 10  1  0
M  END
>  <ID>  (1) 
conformer_0

$$$$
