
     RDKit          3D

 17 18  0  0  0  0  0  0  0  0999 V2000
   33.7432   20.4988   35.9320 O   0  0  0  0  0  0  0  0  0  0  0  0
   33.8432   19.1988   36.5320 C   0  0  0  0  0  0  0  0  0  0  0  0
   32.7432   18.2988   36.6320 C   0  0  0  0  0  0  0  0  0  0  0  0
   31.5432   18.7988   35.9319 O   0  0  0  0  0  0  0  0  0  0  0  0
   35.2432   18.6988   36.5320 C   0  0  0  0  0  0  0  0  0  0  0  0
   32.6432   17.1988   37.5320 C   0  0  0  0  0  0  0  0  0  0  0  0
   34.0432   16.8988   37.7320 O   0  0  0  0  0  0  0  0  0  0  0  0
   35.1432   17.2988   37.2320 C   0  0  0  0  0  0  0  0  0  0  0  0
   36.3432   19.5988   36.3320 O   0  0  0  0  0  0  0  0  0  0  0  0
   37.6432   19.5988   35.8320 P   0  0  0  0  0  4  0  0  0  0  0  0
   38.1432   20.9988   35.8320 O   0  0  0  0  0  1  0  0  0  0  0  0
   38.4432   18.4988   36.2320 O   0  0  0  0  0  0  0  0  0  0  0  0
   31.7432   16.1988   37.4320 O   0  0  0  0  0  0  0  0  0  0  0  0
   37.6432   19.1988   34.4319 O   0  0  0  0  0  0  0  0  0  0  0  0
   36.4432   16.8988   37.8320 C   0  0  0  0  0  0  0  0  0  0  0  0
   36.2432   15.8988   38.9319 O   0  0  0  0  0  0  0  0  0  0  0  0
   37.6432   17.5988   37.3320 C   0  0  0  0  0  0  0  0  0  0  0  0
  2  1  1  0
  3  2  1  0
  4  3  1  0
  5  2  1  0
  6  3  1  0
  7  6  1  0
  8  5  1  0
  8  7  1  0
  9  5  1  0
 10  9  1  0
 11 10  2  0
 12 10  1  0
 13  6  2  0
 14 10  1  0
 15  8  1  0
 16 15  1  0
 17 12  1  0
 17 15  1  0
M  END
>  <ID>  (1) 
conformer_0

$$$$
