
     RDKit          3D

 16 16  0  0  0  0  0  0  0  0999 V2000
   33.6002   20.4371   35.8603 O   0  0  0  0  0  0  0  0  0  0  0  0
   33.9002   19.2371   36.5603 C   0  0  0  0  0  0  0  0  0  0  0  0
   33.0002   18.1371   36.9603 C   0  0  0  0  0  0  0  0  0  0  0  0
   35.3002   18.7371   36.6603 C   0  0  0  0  0  0  0  0  0  0  0  0
   33.8002   17.1371   37.5603 O   0  0  0  0  0  0  0  0  0  0  0  0
   35.2002   17.2371   37.1603 C   0  0  0  0  0  0  0  0  0  0  0  0
   31.7002   18.1371   36.5603 C   0  0  0  0  0  0  0  0  0  0  0  0
   31.5002   18.9371   35.3603 O   0  0  0  0  0  0  0  0  0  0  0  0
   36.2002   16.9371   37.9603 O   0  0  0  0  0  0  0  0  0  0  0  0
   36.5002   19.4371   36.6603 O   0  0  0  0  0  0  0  0  0  0  0  0
   37.6002   19.6371   35.6603 P   0  0  0  0  0  4  0  0  0  0  0  0
   38.1002   21.0371   35.7603 O   0  0  0  0  0  1  0  0  0  0  0  0
   37.7002   18.7371   34.5603 O   0  0  0  0  0  0  0  0  0  0  0  0
   38.7002   19.0371   36.4603 O   0  0  0  0  0  0  0  0  0  0  0  0
   31.0002   16.8371   36.5603 C   0  0  0  0  0  0  0  0  0  0  0  0
   29.9002   16.7371   35.6603 O   0  0  0  0  0  0  0  0  0  0  0  0
  2  1  1  0
  3  2  1  0
  4  2  1  0
  5  3  1  0
  6  4  1  0
  6  5  1  0
  7  3  1  0
  8  7  1  0
  9  6  1  0
 10  4  1  0
 11 10  1  0
 12 11  2  0
 13 11  1  0
 14 11  1  0
 15  7  1  0
 16 15  1  0
M  END
>  <ID>  (1) 
conformer_0

$$$$
