
     RDKit          3D

 14 15  0  0  0  0  0  0  0  0999 V2000
   33.7469   20.4832   35.6501 O   0  0  0  0  0  0  0  0  0  0  0  0
   33.7469   19.2832   36.4501 C   0  0  0  0  0  0  0  0  0  0  0  0
   34.8469   18.3832   36.6501 C   0  0  0  0  0  0  0  0  0  0  0  0
   32.4469   18.5832   36.6501 C   0  0  0  0  0  0  0  0  0  0  0  0
   31.6469   18.9832   35.4501 O   0  0  0  0  0  0  0  0  0  0  0  0
   34.4469   17.2832   37.4501 O   0  0  0  0  0  0  0  0  0  0  0  0
   32.9469   17.2832   37.4501 C   0  0  0  0  0  0  0  0  0  0  0  0
   36.2469   18.6832   36.5501 C   0  0  0  0  0  0  0  0  0  0  0  0
   36.9469   17.5832   37.2501 O   0  0  0  0  0  0  0  0  0  0  0  0
   32.2469   16.1832   37.2501 O   0  0  0  0  0  0  0  0  0  0  0  0
   36.7469   18.6832   35.1501 C   0  0  0  0  0  0  0  0  0  0  0  0
   38.1469   18.7832   34.9501 O   0  0  0  0  0  0  0  0  0  0  0  0
   37.6469   17.4832   34.9501 C   0  0  0  0  0  0  0  0  0  0  0  0
   37.1469   16.3832   34.8501 O   0  0  0  0  0  0  0  0  0  0  0  0
  2  1  1  0
  3  2  1  0
  4  2  1  0
  5  4  1  0
  6  3  1  0
  7  4  1  0
  7  6  1  0
  8  3  1  0
  9  8  1  0
 10  7  2  0
 11  8  1  0
 12 11  1  0
 13 11  1  0
 13 12  1  0
 14 13  2  0
M  END
>  <ID>  (1) 
conformer_0

$$$$
