
     RDKit          3D

 10 10  0  0  0  0  0  0  0  0999 V2000
   33.7792   20.7253   36.0731 O   0  0  0  0  0  0  0  0  0  0  0  0
   33.8792   19.4253   36.4731 C   0  0  0  0  0  0  0  0  0  0  0  0
   32.8792   18.4253   36.8731 C   0  0  0  0  0  0  0  0  0  0  0  0
   31.6792   18.9253   36.9731 O   0  0  0  0  0  0  0  0  0  0  0  0
   35.2792   18.9253   36.4731 C   0  0  0  0  0  0  0  0  0  0  0  0
   33.5792   17.2253   37.2731 C   0  0  0  0  0  0  0  0  0  0  0  0
   35.0792   17.5253   36.9731 C   0  0  0  0  0  0  0  0  0  0  0  0
   36.3792   19.7253   36.5731 O   0  0  0  0  0  0  0  0  0  0  0  0
   36.0792   17.1253   37.9731 O   0  0  0  0  0  0  0  0  0  0  0  0
   33.3792   16.4253   38.2731 O   0  0  0  0  0  0  0  0  0  0  0  0
  2  1  1  0
  3  2  2  0
  4  3  1  0
  5  2  1  0
  6  3  1  0
  7  5  1  0
  7  6  1  0
  8  5  1  0
  9  7  1  0
 10  6  1  0
M  END
>  <ID>  (1) 
conformer_0

$$$$
