
     RDKit          3D

 12 12  0  0  0  0  0  0  0  0999 V2000
   33.6002   20.7504   35.7221 O   0  0  0  0  0  0  0  0  0  0  0  0
   33.8002   19.5504   36.4221 C   0  0  0  0  0  0  0  0  0  0  0  0
   34.9002   18.5504   36.6221 C   0  0  0  0  0  0  0  0  0  0  0  0
   32.5002   18.9504   36.7221 C   0  0  0  0  0  0  0  0  0  0  0  0
   31.8002   18.8504   35.4221 O   0  0  0  0  0  0  0  0  0  0  0  0
   34.3002   17.2504   36.9221 O   0  0  0  0  0  0  0  0  0  0  0  0
   32.9002   17.5504   37.2221 C   0  0  0  0  0  0  0  0  0  0  0  0
   36.3002   18.6504   36.4221 C   0  0  0  0  0  0  0  0  0  0  0  0
   36.9002   17.7504   37.3221 O   0  0  0  0  0  0  0  0  0  0  0  0
   32.0002   16.5504   37.1221 O   0  0  0  0  0  0  0  0  0  0  0  0
   37.2002   19.6504   35.8221 C   0  0  0  0  0  0  0  0  0  0  0  0
   38.1002   20.6504   35.8221 O   0  0  0  0  0  0  0  0  0  0  0  0
  2  1  1  0
  3  2  1  0
  4  2  1  0
  5  4  1  0
  6  3  1  0
  7  4  1  0
  7  6  1  0
  8  3  1  0
  9  8  1  0
 10  7  2  0
 11  8  2  0
 12 11  2  0
M  END
>  <ID>  (1) 
conformer_0

$$$$
