
     RDKit          3D

 12 12  0  0  0  0  0  0  0  0999 V2000
   33.7432   20.4988   35.9320 O   0  0  0  0  0  0  0  0  0  0  0  0
   33.8432   19.1988   36.5320 C   0  0  0  0  0  0  0  0  0  0  0  0
   32.7432   18.2988   36.6320 C   0  0  0  0  0  0  0  0  0  0  0  0
   31.5432   18.7988   35.9319 O   0  0  0  0  0  0  0  0  0  0  0  0
   35.2432   18.6988   36.5320 C   0  0  0  0  0  0  0  0  0  0  0  0
   33.0432   16.8988   36.2319 C   0  0  0  0  0  0  0  0  0  0  0  0
   35.5432   17.2988   36.8320 C   0  0  0  0  0  0  0  0  0  0  0  0
   36.2432   19.5988   36.6320 O   0  0  0  0  0  0  0  0  0  0  0  0
   34.4432   16.3988   36.2319 C   0  0  0  0  0  0  0  0  0  0  0  0
   32.3432   16.3988   35.1320 O   0  0  0  0  0  0  0  0  0  0  0  0
   36.3432   17.0988   37.8320 O   0  0  0  0  0  0  0  0  0  0  0  0
   34.5432   14.9988   36.5319 O   0  0  0  0  0  0  0  0  0  0  0  0
  2  1  1  0
  3  2  1  0
  4  3  1  0
  5  2  1  0
  6  3  1  0
  7  5  1  0
  8  5  1  0
  9  6  1  0
  9  7  1  0
 10  6  1  0
 11  7  1  0
 12  9  1  0
M  END
>  <ID>  (1) 
conformer_0

$$$$
