
     RDKit          3D

 14 14  0  0  0  0  0  0  0  0999 V2000
   33.7432   20.4988   35.9320 O   0  0  0  0  0  0  0  0  0  0  0  0
   34.0432   19.2988   36.5320 C   0  0  0  0  0  0  0  0  0  0  0  0
   33.1432   18.1988   36.8320 C   0  0  0  0  0  0  0  0  0  0  0  0
   35.4432   18.7988   36.6320 C   0  0  0  0  0  0  0  0  0  0  0  0
   35.4432   17.5988   37.3320 O   0  0  0  0  0  0  0  0  0  0  0  0
   34.0432   17.0988   37.3320 C   0  0  0  0  0  0  0  0  0  0  0  0
   31.8432   18.4988   37.3320 O   0  0  0  0  0  0  0  0  0  0  0  0
   36.6432   19.2988   36.2319 C   0  0  0  0  0  0  0  0  0  0  0  0
   37.7432   18.2988   36.4319 O   0  0  0  0  0  0  0  0  0  0  0  0
   39.1432   18.5988   36.0319 P   0  0  0  0  0  4  0  0  0  0  0  0
   40.2432   19.5988   35.8319 O   0  0  0  0  0  1  0  0  0  0  0  0
   33.5432   16.2988   38.3320 O   0  0  0  0  0  0  0  0  0  0  0  0
   39.6432   17.1988   35.9319 O   0  0  0  0  0  0  0  0  0  0  0  0
   38.7432   18.8988   34.6319 O   0  0  0  0  0  0  0  0  0  0  0  0
  2  1  1  0
  3  2  1  0
  4  2  1  0
  5  4  1  0
  6  3  1  0
  6  5  1  0
  7  3  1  0
  8  4  1  0
  9  8  1  0
 10  9  1  0
 11 10  2  0
 12  6  2  0
 13 10  1  0
 14 10  1  0
M  END
>  <ID>  (1) 
conformer_0

$$$$
