
     RDKit          3D

 11 12  0  0  0  0  0  0  0  0999 V2000
   33.7432   20.4988   35.9320 O   0  0  0  0  0  0  0  0  0  0  0  0
   33.8432   19.1988   36.5320 C   0  0  0  0  0  0  0  0  0  0  0  0
   32.7432   18.2988   36.6320 C   0  0  0  0  0  0  0  0  0  0  0  0
   35.2432   18.6988   36.6320 C   0  0  0  0  0  0  0  0  0  0  0  0
   31.5432   18.8988   37.1320 O   0  0  0  0  0  0  0  0  0  0  0  0
   33.3432   16.9988   37.0320 C   0  0  0  0  0  0  0  0  0  0  0  0
   34.3432   16.8988   37.9320 O   0  0  0  0  0  0  0  0  0  0  0  0
   35.5432   17.3988   37.2320 C   0  0  0  0  0  0  0  0  0  0  0  0
   35.3432   17.3988   35.8320 O   0  0  0  0  0  0  0  0  0  0  0  0
   33.2432   15.9988   35.9320 C   0  0  0  0  0  0  0  0  0  0  0  0
   32.2432   16.3988   34.9320 O   0  0  0  0  0  0  0  0  0  0  0  0
  2  1  1  0
  3  2  1  0
  4  2  1  0
  5  3  1  0
  6  3  1  0
  7  6  1  0
  8  4  1  0
  8  7  1  0
  9  4  1  0
  9  8  1  0
 10  6  1  0
 11 10  1  0
M  END
>  <ID>  (1) 
conformer_0

$$$$
