
     RDKit          3D

 15 15  0  0  0  0  0  0  0  0999 V2000
   33.7432   20.4988   35.9320 O   0  0  0  0  0  0  0  0  0  0  0  0
   34.0432   19.2988   36.5320 C   0  0  0  0  0  0  0  0  0  0  0  0
   33.1432   18.1988   36.8320 C   0  0  0  0  0  0  0  0  0  0  0  0
   35.4432   18.8988   36.4320 C   0  0  0  0  0  0  0  0  0  0  0  0
   31.7432   18.2988   37.1320 C   0  0  0  0  0  0  0  0  0  0  0  0
   33.9432   17.1988   37.4319 O   0  0  0  0  0  0  0  0  0  0  0  0
   35.3432   17.5988   37.2319 C   0  0  0  0  0  0  0  0  0  0  0  0
   31.2432   17.5988   38.2319 O   0  0  0  0  0  0  0  0  0  0  0  0
   36.3432   17.1988   38.0319 O   0  0  0  0  0  0  0  0  0  0  0  0
   36.6432   19.5988   36.6320 O   0  0  0  0  0  0  0  0  0  0  0  0
   37.8432   19.5988   35.7320 P   0  0  0  0  0  4  0  0  0  0  0  0
   38.3432   20.8988   35.8320 O   0  0  0  0  0  1  0  0  0  0  0  0
   38.0432   18.4988   34.7320 O   0  0  0  0  0  0  0  0  0  0  0  0
   38.6432   18.8988   36.7320 O   0  0  0  0  0  0  0  0  0  0  0  0
   31.3432   18.8988   35.8320 O   0  0  0  0  0  0  0  0  0  0  0  0
  2  1  1  0
  3  2  1  0
  4  2  1  0
  5  3  1  0
  6  3  1  0
  7  4  1  0
  7  6  1  0
  8  5  2  0
  9  7  2  0
 10  4  1  0
 11 10  1  0
 12 11  2  0
 13 11  1  0
 14 11  1  0
 15  5  1  0
M  END
>  <ID>  (1) 
conformer_0

$$$$
