
     RDKit          3D

 12 12  0  0  0  0  0  0  0  0999 V2000
   33.7432   20.4988   35.9320 O   0  0  0  0  0  0  0  0  0  0  0  0
   34.3432   19.2988   36.4320 C   0  0  0  0  0  0  0  0  0  0  0  0
   33.4432   18.2988   36.9320 C   0  0  0  0  0  0  0  0  0  0  0  0
   35.7432   18.9988   36.4320 C   0  0  0  0  0  0  0  0  0  0  0  0
   34.3432   17.2988   37.5320 O   0  0  0  0  0  0  0  0  0  0  0  0
   35.7432   17.5988   37.1320 C   0  0  0  0  0  0  0  0  0  0  0  0
   32.4432   17.6988   36.0320 C   0  0  0  0  0  0  0  0  0  0  0  0
   31.6432   18.7988   35.4320 O   0  0  0  0  0  0  0  0  0  0  0  0
   36.6432   17.2988   38.0320 O   0  0  0  0  0  0  0  0  0  0  0  0
   36.8432   19.6988   36.6320 O   0  0  0  0  0  0  0  0  0  0  0  0
   31.9432   16.3988   36.5320 C   0  0  0  0  0  0  0  0  0  0  0  0
   30.5432   16.5988   37.0320 O   0  0  0  0  0  0  0  0  0  0  0  0
  2  1  1  0
  3  2  1  0
  4  2  1  0
  5  3  1  0
  6  4  1  0
  6  5  1  0
  7  3  1  0
  8  7  1  0
  9  6  1  0
 10  4  1  0
 11  7  1  0
 12 11  1  0
M  END
>  <ID>  (1) 
conformer_0

$$$$
