
     RDKit          3D

 12 12  0  0  0  0  0  0  0  0999 V2000
   35.5016   19.9205   34.7903 O   0  0  0  0  0  0  0  0  0  0  0  0
   35.2016   19.2205   35.9903 C   0  0  0  0  0  0  0  0  0  0  0  0
   33.8016   19.2205   36.4903 C   0  0  0  0  0  0  0  0  0  0  0  0
   33.3016   20.5205   35.9903 O   0  0  0  0  0  0  0  0  0  0  0  0
   32.9016   18.2205   36.9903 C   0  0  0  0  0  0  0  0  0  0  0  0
   31.6016   18.7205   36.8903 O   0  0  0  0  0  0  0  0  0  0  0  0
   35.9016   17.9205   36.1903 C   0  0  0  0  0  0  0  0  0  0  0  0
   35.2016   17.4205   37.3903 O   0  0  0  0  0  0  0  0  0  0  0  0
   33.9016   17.0205   37.2903 C   0  0  0  0  0  0  0  0  0  0  0  0
   37.0016   17.7205   35.6903 O   0  0  0  0  0  0  0  0  0  0  0  0
   33.4016   16.1205   38.2903 C   0  0  0  0  0  0  0  0  0  0  0  0
   34.3016   15.8205   39.2903 O   0  0  0  0  0  0  0  0  0  0  0  0
  2  1  1  0
  3  2  1  0
  4  3  1  0
  5  3  1  0
  6  5  1  0
  7  2  1  0
  8  7  1  0
  9  5  1  0
  9  8  1  0
 10  7  2  0
 11  9  1  0
 12 11  1  0
M  END
>  <ID>  (1) 
conformer_0

$$$$
