
     RDKit          3D

 12 12  0  0  0  0  0  0  0  0999 V2000
   33.7432   20.4988   35.9320 O   0  0  0  0  0  0  0  0  0  0  0  0
   34.0432   19.2988   36.5320 C   0  0  0  0  0  0  0  0  0  0  0  0
   33.1432   18.2988   36.7320 C   0  0  0  0  0  0  0  0  0  0  0  0
   35.4432   18.8988   36.6320 C   0  0  0  0  0  0  0  0  0  0  0  0
   31.7432   18.7988   36.9320 O   0  0  0  0  0  0  0  0  0  0  0  0
   35.6432   17.4988   37.0320 C   0  0  0  0  0  0  0  0  0  0  0  0
   36.4432   19.6988   36.3320 O   0  0  0  0  0  0  0  0  0  0  0  0
   33.2432   17.0988   37.5320 C   0  0  0  0  0  0  0  0  0  0  0  0
   34.6432   16.8988   37.8320 O   0  0  0  0  0  0  0  0  0  0  0  0
   36.8432   17.3988   37.8320 O   0  0  0  0  0  0  0  0  0  0  0  0
   31.9432   16.5988   38.0320 C   0  0  0  0  0  0  0  0  0  0  0  0
   31.0432   16.1988   36.9320 O   0  0  0  0  0  0  0  0  0  0  0  0
  2  1  1  0
  3  2  1  0
  4  2  2  0
  5  3  1  0
  6  4  1  0
  7  4  1  0
  8  3  1  0
  9  6  1  0
  9  8  1  0
 10  6  1  0
 11  8  1  0
 12 11  1  0
M  END
>  <ID>  (1) 
conformer_0

$$$$
