
     RDKit          3D

 14 15  0  0  0  0  0  0  0  0999 V2000
   33.7469   20.4832   35.6501 O   0  0  0  0  0  0  0  0  0  0  0  0
   33.7469   19.2832   36.4501 C   0  0  0  0  0  0  0  0  0  0  0  0
   34.8469   18.3832   36.6501 C   0  0  0  0  0  0  0  0  0  0  0  0
   32.4469   18.5832   36.6501 C   0  0  0  0  0  0  0  0  0  0  0  0
   31.6469   18.9832   35.4501 O   0  0  0  0  0  0  0  0  0  0  0  0
   34.4469   17.2832   37.4501 O   0  0  0  0  0  0  0  0  0  0  0  0
   36.1469   18.7832   36.4501 C   0  0  0  0  0  0  0  0  0  0  0  0
   32.9469   17.2832   37.4501 C   0  0  0  0  0  0  0  0  0  0  0  0
   37.2469   18.0832   36.9501 O   0  0  0  0  0  0  0  0  0  0  0  0
   32.2469   16.1832   36.9501 O   0  0  0  0  0  0  0  0  0  0  0  0
   36.3469   19.2832   35.0501 C   0  0  0  0  0  0  0  0  0  0  0  0
   35.5469   19.2832   34.0501 O   0  0  0  0  0  0  0  0  0  0  0  0
   37.7469   19.5832   34.6501 O   0  0  0  0  0  0  0  0  0  0  0  0
   37.5469   18.2832   34.4501 C   0  0  0  0  0  0  0  0  0  0  0  0
  2  1  1  0
  3  2  1  0
  4  2  1  0
  5  4  1  0
  6  3  1  0
  7  3  1  0
  8  4  1  0
  8  6  1  0
  9  7  1  0
 10  8  1  0
 11  7  1  0
 12 11  1  0
 13 11  1  0
 14 11  1  0
 14 13  1  0
M  END
>  <ID>  (1) 
conformer_0

$$$$
