
     RDKit          3D

 17 18  0  0  0  0  0  0  0  0999 V2000
   33.7530   20.2885   35.9705 O   0  0  0  0  0  0  0  0  0  0  0  0
   33.9530   18.9885   36.5705 C   0  0  0  0  0  0  0  0  0  0  0  0
   32.7530   18.1885   36.8705 C   0  0  0  0  0  0  0  0  0  0  0  0
   31.5530   18.8885   37.0705 O   0  0  0  0  0  0  0  0  0  0  0  0
   35.2530   18.4885   36.6705 C   0  0  0  0  0  0  0  0  0  0  0  0
   32.4530   16.9885   36.0705 C   0  0  0  0  0  0  0  0  0  0  0  0
   36.5530   19.1885   36.4705 C   0  0  0  0  0  0  0  0  0  0  0  0
   37.6530   18.1885   36.4705 O   0  0  0  0  0  0  0  0  0  0  0  0
   35.4530   17.2885   37.4705 O   0  0  0  0  0  0  0  0  0  0  0  0
   37.0530   17.1885   37.3705 C   0  0  0  0  0  0  0  0  0  0  0  0
   37.4530   15.8885   36.9705 C   0  0  0  0  0  0  0  0  0  0  0  0
   32.1530   17.5885   34.7705 O   0  0  0  0  0  0  0  0  0  0  0  0
   36.4530   14.8885   37.2705 O   0  0  0  0  0  0  0  0  0  0  0  0
   31.4530   16.1885   36.6705 C   0  0  0  0  0  0  0  0  0  0  0  0
   30.1530   16.3885   36.3705 O   0  0  0  0  0  0  0  0  0  0  0  0
   35.9530   19.2885   35.1705 C   0  0  0  0  0  0  0  0  0  0  0  0
   35.8530   20.3885   34.3705 O   0  0  0  0  0  0  0  0  0  0  0  0
  2  1  1  0
  3  2  1  0
  4  3  1  0
  5  2  1  0
  6  3  1  0
  7  5  1  0
  8  7  1  0
  9  5  1  0
 10  8  1  0
 10  9  1  0
 11 10  1  0
 12  6  1  0
 13 11  1  0
 14  6  1  0
 15 14  1  0
 16  5  1  0
 16  7  1  0
 17 16  1  0
M  END
>  <ID>  (1) 
conformer_0

$$$$
