
     RDKit          3D

 17 17  0  0  0  0  0  0  0  0999 V2000
   33.6002   20.4371   35.8603 O   0  0  0  0  0  0  0  0  0  0  0  0
   34.0002   19.2371   36.5603 C   0  0  0  0  0  0  0  0  0  0  0  0
   32.9002   18.3371   36.8603 C   0  0  0  0  0  0  0  0  0  0  0  0
   31.6002   18.9371   37.0603 O   0  0  0  0  0  0  0  0  0  0  0  0
   35.4002   18.8371   36.4603 C   0  0  0  0  0  0  0  0  0  0  0  0
   33.0002   16.9371   36.3603 C   0  0  0  0  0  0  0  0  0  0  0  0
   35.4002   17.3371   36.4603 C   0  0  0  0  0  0  0  0  0  0  0  0
   36.2002   19.6371   35.6603 O   0  0  0  0  0  0  0  0  0  0  0  0
   37.7002   19.6371   35.6603 P   0  0  0  0  0  4  0  0  0  0  0  0
   38.2002   20.9371   35.7603 O   0  0  0  0  0  1  0  0  0  0  0  0
   37.9002   18.4371   36.4603 O   0  0  0  0  0  0  0  0  0  0  0  0
   32.0002   16.0371   36.4603 N   0  0  0  0  0  0  0  0  0  0  0  0
   38.3002   19.2371   34.3603 O   0  0  0  0  0  0  0  0  0  0  0  0
   34.2002   16.9371   35.6603 O   0  0  0  0  0  0  0  0  0  0  0  0
   36.4002   16.5371   37.0603 C   0  0  0  0  0  0  0  0  0  0  0  0
   37.0002   15.5371   36.1603 O   0  0  0  0  0  0  0  0  0  0  0  0
   32.2002   14.6371   36.2603 C   0  0  0  0  0  0  0  0  0  0  0  0
  2  1  1  0
  3  2  2  0
  4  3  1  0
  5  2  1  0
  6  3  1  0
  7  5  2  0
  8  5  1  0
  9  8  1  0
 10  9  2  0
 11  9  1  0
 12  6  1  0
 13  9  1  0
 14  6  1  0
 14  7  1  0
 15  7  1  0
 16 15  1  0
 17 12  1  0
M  END
>  <ID>  (1) 
conformer_0

$$$$
