
     RDKit          3D

 17 18  0  0  0  0  0  0  0  0999 V2000
   33.7432   20.4988   35.9320 O   0  0  0  0  0  0  0  0  0  0  0  0
   34.0432   19.2988   36.5320 C   0  0  0  0  0  0  0  0  0  0  0  0
   33.1432   18.2988   36.7320 C   0  0  0  0  0  0  0  0  0  0  0  0
   35.4432   18.8988   36.6320 C   0  0  0  0  0  0  0  0  0  0  0  0
   31.7432   18.7988   36.9320 O   0  0  0  0  0  0  0  0  0  0  0  0
   35.6432   17.4988   37.0320 C   0  0  0  0  0  0  0  0  0  0  0  0
   36.4432   19.6988   36.3320 O   0  0  0  0  0  0  0  0  0  0  0  0
   33.2432   16.9988   37.3320 C   0  0  0  0  0  0  0  0  0  0  0  0
   34.6432   16.8988   37.7320 O   0  0  0  0  0  0  0  0  0  0  0  0
   36.7432   17.3988   37.8320 O   0  0  0  0  0  0  0  0  0  0  0  0
   37.8432   18.0988   37.2320 C   0  0  0  0  0  0  0  0  0  0  0  0
   37.6432   18.7988   35.9320 C   0  0  0  0  0  0  0  0  0  0  0  0
   38.6432   19.7988   35.8320 O   0  0  0  0  0  0  0  0  0  0  0  0
   32.0432   16.5988   38.0320 C   0  0  0  0  0  0  0  0  0  0  0  0
   39.1432   17.5988   37.4320 C   0  0  0  0  0  0  0  0  0  0  0  0
   39.5432   16.6988   38.4320 O   0  0  0  0  0  0  0  0  0  0  0  0
   31.8432   15.1988   37.7320 O   0  0  0  0  0  0  0  0  0  0  0  0
  2  1  1  0
  3  2  1  0
  4  2  2  0
  5  3  1  0
  6  4  1  0
  7  4  1  0
  8  3  1  0
  9  6  1  0
  9  8  1  0
 10  6  1  0
 11 10  1  0
 12  7  1  0
 12 11  1  0
 13 12  1  0
 14  8  1  0
 15 11  1  0
 16 15  1  0
 17 14  1  0
M  END
>  <ID>  (1) 
conformer_0

$$$$
