
     RDKit          3D

 17 18  0  0  0  0  0  0  0  0999 V2000
   33.7432   20.4988   35.9320 O   0  0  0  0  0  0  0  0  0  0  0  0
   34.0432   19.2988   36.5320 C   0  0  0  0  0  0  0  0  0  0  0  0
   33.1432   18.2988   36.7320 C   0  0  0  0  0  0  0  0  0  0  0  0
   35.4432   18.8988   36.6320 C   0  0  0  0  0  0  0  0  0  0  0  0
   31.7432   18.7988   36.9320 O   0  0  0  0  0  0  0  0  0  0  0  0
   35.6432   17.4988   37.0320 C   0  0  0  0  0  0  0  0  0  0  0  0
   36.4432   19.6988   36.3320 O   0  0  0  0  0  0  0  0  0  0  0  0
   33.3432   16.9988   37.3320 C   0  0  0  0  0  0  0  0  0  0  0  0
   34.6432   16.7988   37.8320 O   0  0  0  0  0  0  0  0  0  0  0  0
   36.8432   17.2988   37.5320 O   0  0  0  0  0  0  0  0  0  0  0  0
   37.9432   18.0988   37.2320 C   0  0  0  0  0  0  0  0  0  0  0  0
   37.8432   19.2988   36.3320 C   0  0  0  0  0  0  0  0  0  0  0  0
   38.9432   19.6988   35.6320 O   0  0  0  0  0  0  0  0  0  0  0  0
   32.1432   16.2988   37.7320 C   0  0  0  0  0  0  0  0  0  0  0  0
   32.4432   14.8988   37.8320 O   0  0  0  0  0  0  0  0  0  0  0  0
   39.2432   17.3988   37.0320 C   0  0  0  0  0  0  0  0  0  0  0  0
   39.4432   16.4988   38.0320 O   0  0  0  0  0  0  0  0  0  0  0  0
  2  1  1  0
  3  2  1  0
  4  2  2  0
  5  3  1  0
  6  4  1  0
  7  4  1  0
  8  3  1  0
  9  6  1  0
  9  8  1  0
 10  6  1  0
 11 10  1  0
 12  7  1  0
 12 11  1  0
 13 12  2  0
 14  8  1  0
 15 14  1  0
 16 11  1  0
 17 16  1  0
M  END
>  <ID>  (1) 
conformer_0

$$$$
