
     RDKit          3D

 10 10  0  0  0  0  0  0  0  0999 V2000
   33.7432   20.4988   35.9320 O   0  0  0  0  0  0  0  0  0  0  0  0
   34.0432   19.2988   36.5320 C   0  0  0  0  0  0  0  0  0  0  0  0
   33.1432   18.1988   36.8320 C   0  0  0  0  0  0  0  0  0  0  0  0
   35.4432   18.7988   36.6320 C   0  0  0  0  0  0  0  0  0  0  0  0
   35.4432   17.5988   37.3320 O   0  0  0  0  0  0  0  0  0  0  0  0
   34.0432   17.0988   37.2320 C   0  0  0  0  0  0  0  0  0  0  0  0
   31.8432   18.7988   37.0320 O   0  0  0  0  0  0  0  0  0  0  0  0
   36.3432   19.0988   35.5320 C   0  0  0  0  0  0  0  0  0  0  0  0
   35.7432   19.7988   34.4320 O   0  0  0  0  0  0  0  0  0  0  0  0
   33.4432   16.1988   38.2320 C   0  0  0  0  0  0  0  0  0  0  0  0
  2  1  1  0
  3  2  1  0
  4  2  1  0
  5  4  1  0
  6  3  1  0
  6  5  1  0
  7  3  1  0
  8  4  1  0
  9  8  1  0
 10  6  1  0
M  END
>  <ID>  (1) 
conformer_0

$$$$
