
     RDKit          3D

 14 15  0  0  0  0  0  0  0  0999 V2000
   33.7469   20.4832   35.6501 O   0  0  0  0  0  0  0  0  0  0  0  0
   33.9469   19.2832   36.4501 C   0  0  0  0  0  0  0  0  0  0  0  0
   32.7469   18.5832   36.8501 C   0  0  0  0  0  0  0  0  0  0  0  0
   35.2469   18.6832   36.6501 C   0  0  0  0  0  0  0  0  0  0  0  0
   31.6469   19.0832   37.1501 O   0  0  0  0  0  0  0  0  0  0  0  0
   34.8469   17.4832   37.3501 O   0  0  0  0  0  0  0  0  0  0  0  0
   33.3469   17.3832   37.3501 C   0  0  0  0  0  0  0  0  0  0  0  0
   36.5469   19.0832   36.2501 C   0  0  0  0  0  0  0  0  0  0  0  0
   37.6469   18.3832   36.9501 O   0  0  0  0  0  0  0  0  0  0  0  0
   32.6469   16.6832   38.2501 O   0  0  0  0  0  0  0  0  0  0  0  0
   36.8469   19.4832   34.8501 C   0  0  0  0  0  0  0  0  0  0  0  0
   38.2469   19.5832   34.5501 O   0  0  0  0  0  0  0  0  0  0  0  0
   35.7469   19.4832   33.9501 O   0  0  0  0  0  0  0  0  0  0  0  0
   37.7469   18.2832   34.2501 C   0  0  0  0  0  0  0  0  0  0  0  0
  2  1  1  0
  3  2  1  0
  4  2  2  0
  5  3  2  0
  6  4  1  0
  7  3  1  0
  7  6  1  0
  8  4  1  0
  9  8  1  0
 10  7  2  0
 11  8  1  0
 12 11  1  0
 13 11  1  0
 14 11  1  0
 14 12  1  0
M  END
>  <ID>  (1) 
conformer_0

$$$$
