
     RDKit          3D

 10 10  0  0  0  0  0  0  0  0999 V2000
   33.7792   20.7253   36.0731 O   0  0  0  0  0  0  0  0  0  0  0  0
   33.8792   19.4253   36.4731 C   0  0  0  0  0  0  0  0  0  0  0  0
   32.8792   18.4253   36.8731 C   0  0  0  0  0  0  0  0  0  0  0  0
   35.1792   18.7253   36.4731 C   0  0  0  0  0  0  0  0  0  0  0  0
   31.5792   18.9253   37.0731 O   0  0  0  0  0  0  0  0  0  0  0  0
   33.3792   17.1253   37.1731 C   0  0  0  0  0  0  0  0  0  0  0  0
   34.9792   17.4253   37.1731 C   0  0  0  0  0  0  0  0  0  0  0  0
   36.1792   19.5253   36.5731 O   0  0  0  0  0  0  0  0  0  0  0  0
   33.0792   16.4253   38.2731 O   0  0  0  0  0  0  0  0  0  0  0  0
   35.8792   16.9253   37.8731 O   0  0  0  0  0  0  0  0  0  0  0  0
  2  1  1  0
  3  2  2  0
  4  2  1  0
  5  3  1  0
  6  3  1  0
  7  4  1  0
  7  6  1  0
  8  4  2  0
  9  6  1  0
 10  7  2  0
M  END
>  <ID>  (1) 
conformer_0

$$$$
