
     RDKit          3D

 17 19  0  0  0  0  0  0  0  0999 V2000
   33.6002   20.4371   35.8603 O   0  0  0  0  0  0  0  0  0  0  0  0
   34.0002   19.2371   36.5603 C   0  0  0  0  0  0  0  0  0  0  0  0
   33.0002   18.3371   36.9603 C   0  0  0  0  0  0  0  0  0  0  0  0
   31.7002   18.8371   37.1603 O   0  0  0  0  0  0  0  0  0  0  0  0
   35.4002   18.7371   36.5603 C   0  0  0  0  0  0  0  0  0  0  0  0
   33.3002   17.0371   37.5603 C   0  0  0  0  0  0  0  0  0  0  0  0
   35.6002   17.3371   36.6603 C   0  0  0  0  0  0  0  0  0  0  0  0
   36.4002   19.6371   36.4603 O   0  0  0  0  0  0  0  0  0  0  0  0
   34.7002   16.8371   37.6603 O   0  0  0  0  0  0  0  0  0  0  0  0
   37.7002   19.4371   35.7603 P   0  0  0  0  0  4  0  0  0  0  0  0
   38.3002   20.7371   35.6603 O   0  0  0  0  0  1  0  0  0  0  0  0
   37.9002   18.2371   34.9603 O   0  0  0  0  0  0  0  0  0  0  0  0
   31.0002   17.7371   37.8603 C   0  0  0  0  0  0  0  0  0  0  0  0
   32.0002   16.5371   38.0603 C   0  0  0  0  0  0  0  0  0  0  0  0
   31.1002   16.6371   36.8603 O   0  0  0  0  0  0  0  0  0  0  0  0
   38.5002   18.8371   36.8603 O   0  0  0  0  0  0  0  0  0  0  0  0
   36.7002   16.6371   36.1603 O   0  0  0  0  0  0  0  0  0  0  0  0
  2  1  1  0
  3  2  1  0
  4  3  1  0
  5  2  1  0
  6  3  2  0
  7  5  1  0
  8  5  1  0
  9  6  1  0
  9  7  1  0
 10  8  1  0
 11 10  2  0
 12 10  1  0
 13  4  1  0
 14  6  1  0
 14 13  1  0
 15 13  1  0
 15 14  1  0
 16 10  1  0
 17  7  2  0
M  END
>  <ID>  (1) 
conformer_0

$$$$
