
     RDKit          3D

 10 10  0  0  0  0  0  0  0  0999 V2000
   33.7432   20.4988   35.9320 O   0  0  0  0  0  0  0  0  0  0  0  0
   34.3432   19.2988   36.4320 C   0  0  0  0  0  0  0  0  0  0  0  0
   33.4432   18.2988   36.9320 C   0  0  0  0  0  0  0  0  0  0  0  0
   35.7432   18.9988   36.4320 C   0  0  0  0  0  0  0  0  0  0  0  0
   32.0432   18.1988   37.0320 C   0  0  0  0  0  0  0  0  0  0  0  0
   34.3432   17.1988   37.2320 O   0  0  0  0  0  0  0  0  0  0  0  0
   35.6432   17.4988   37.1320 C   0  0  0  0  0  0  0  0  0  0  0  0
   30.8432   18.6988   37.4320 O   0  0  0  0  0  0  0  0  0  0  0  0
   36.4432   17.2988   38.0320 O   0  0  0  0  0  0  0  0  0  0  0  0
   36.7432   19.6988   36.8320 O   0  0  0  0  0  0  0  0  0  0  0  0
  2  1  1  0
  3  2  2  0
  4  2  1  0
  5  3  1  0
  6  3  1  0
  7  4  1  0
  7  6  1  0
  8  5  1  0
  9  7  1  0
 10  4  1  0
M  END
>  <ID>  (1) 
conformer_0

$$$$
