
     RDKit          3D

 14 15  0  0  0  0  0  0  0  0999 V2000
   33.7432   20.4988   35.9320 O   0  0  0  0  0  0  0  0  0  0  0  0
   34.0432   19.2988   36.5320 C   0  0  0  0  0  0  0  0  0  0  0  0
   33.1432   18.1988   36.8320 C   0  0  0  0  0  0  0  0  0  0  0  0
   35.4432   18.8988   36.4320 C   0  0  0  0  0  0  0  0  0  0  0  0
   31.7432   18.2988   37.1320 C   0  0  0  0  0  0  0  0  0  0  0  0
   33.9432   17.1988   37.4319 O   0  0  0  0  0  0  0  0  0  0  0  0
   35.3432   17.5988   37.2319 C   0  0  0  0  0  0  0  0  0  0  0  0
   31.2432   17.5988   38.2319 O   0  0  0  0  0  0  0  0  0  0  0  0
   36.6432   17.0988   37.7319 C   0  0  0  0  0  0  0  0  0  0  0  0
   37.4432   18.1988   37.6320 O   0  0  0  0  0  0  0  0  0  0  0  0
   35.5432   17.6988   35.7320 O   0  0  0  0  0  0  0  0  0  0  0  0
   30.9432   17.6988   36.0320 C   0  0  0  0  0  0  0  0  0  0  0  0
   31.1432   18.6988   34.9320 O   0  0  0  0  0  0  0  0  0  0  0  0
   30.4432   16.2988   36.1320 C   0  0  0  0  0  0  0  0  0  0  0  0
  2  1  1  0
  3  2  1  0
  4  2  1  0
  5  3  1  0
  6  3  1  0
  7  4  1  0
  7  6  1  0
  8  5  1  0
  9  7  1  0
 10  9  1  0
 11  4  1  0
 11  7  1  0
 12  5  1  0
 13 12  1  0
 14 12  1  0
M  END
>  <ID>  (1) 
conformer_0

$$$$
