
     RDKit          3D

 10 10  0  0  0  0  0  0  0  0999 V2000
   33.4978   20.5935   36.2159 O   0  0  0  0  0  0  0  0  0  0  0  0
   33.7978   19.2935   36.5159 C   0  0  0  0  0  0  0  0  0  0  0  0
   32.8978   18.1935   36.9159 C   0  0  0  0  0  0  0  0  0  0  0  0
   31.5978   18.7935   37.1159 O   0  0  0  0  0  0  0  0  0  0  0  0
   35.1978   18.7935   36.4159 C   0  0  0  0  0  0  0  0  0  0  0  0
   35.2978   17.6935   37.2159 O   0  0  0  0  0  0  0  0  0  0  0  0
   33.8978   17.1935   37.3159 C   0  0  0  0  0  0  0  0  0  0  0  0
   33.4978   15.9935   38.0159 C   0  0  0  0  0  0  0  0  0  0  0  0
   36.0978   19.6935   36.3159 O   0  0  0  0  0  0  0  0  0  0  0  0
   34.4978   15.6935   39.0159 O   0  0  0  0  0  0  0  0  0  0  0  0
  2  1  1  0
  3  2  2  0
  4  3  1  0
  5  2  1  0
  6  5  1  0
  7  3  1  0
  7  6  1  0
  8  7  1  0
  9  5  2  0
 10  8  1  0
M  END
>  <ID>  (1) 
conformer_0

$$$$
