
     RDKit          3D

  9  9  0  0  0  0  0  0  0  0999 V2000
   31.1332   18.9224   35.0313 O   0  0  0  0  0  0  0  0  0  0  0  0
   31.2332   17.9224   36.0313 C   0  0  0  0  0  0  0  0  0  0  0  0
   32.0332   17.9224   37.2313 C   0  0  0  0  0  0  0  0  0  0  0  0
   33.4332   18.1224   36.9313 C   0  0  0  0  0  0  0  0  0  0  0  0
   33.7332   19.3224   36.3313 C   0  0  0  0  0  0  0  0  0  0  0  0
   33.5332   18.3224   35.4313 O   0  0  0  0  0  0  0  0  0  0  0  0
   33.6332   20.6224   36.0313 O   0  0  0  0  0  0  0  0  0  0  0  0
   31.7332   16.9224   38.2313 O   0  0  0  0  0  0  0  0  0  0  0  0
   30.1332   16.9224   36.0313 C   0  0  0  0  0  0  0  0  0  0  0  0
  2  1  1  0
  3  2  1  0
  4  3  1  0
  5  4  1  0
  6  4  1  0
  6  5  1  0
  7  5  2  0
  8  3  1  0
  9  2  1  0
M  END
>  <ID>  (1) 
conformer_0

$$$$
