
     RDKit          3D

 17 18  0  0  0  0  0  0  0  0999 V2000
   33.7432   20.4988   35.9320 O   0  0  0  0  0  0  0  0  0  0  0  0
   34.0432   19.2988   36.5320 C   0  0  0  0  0  0  0  0  0  0  0  0
   33.1432   18.2988   36.7320 C   0  0  0  0  0  0  0  0  0  0  0  0
   35.4432   18.8988   36.6320 C   0  0  0  0  0  0  0  0  0  0  0  0
   31.7432   18.7988   36.9320 O   0  0  0  0  0  0  0  0  0  0  0  0
   35.6432   17.4988   37.1320 C   0  0  0  0  0  0  0  0  0  0  0  0
   36.5432   19.5988   36.5320 O   0  0  0  0  0  0  0  0  0  0  0  0
   34.6432   16.6988   37.7319 O   0  0  0  0  0  0  0  0  0  0  0  0
   33.3432   16.9988   37.3319 C   0  0  0  0  0  0  0  0  0  0  0  0
   36.9432   17.1988   37.5320 O   0  0  0  0  0  0  0  0  0  0  0  0
   38.1432   17.9988   37.2320 C   0  0  0  0  0  0  0  0  0  0  0  0
   37.7432   18.9988   36.2320 C   0  0  0  0  0  0  0  0  0  0  0  0
   32.2432   16.0988   37.1319 C   0  0  0  0  0  0  0  0  0  0  0  0
   32.6432   14.6988   37.3319 O   0  0  0  0  0  0  0  0  0  0  0  0
   38.9432   19.5988   35.7320 O   0  0  0  0  0  0  0  0  0  0  0  0
   39.5432   17.5988   37.1320 C   0  0  0  0  0  0  0  0  0  0  0  0
   39.7432   16.7988   38.3320 O   0  0  0  0  0  0  0  0  0  0  0  0
  2  1  1  0
  3  2  1  0
  4  2  1  0
  5  3  1  0
  6  4  1  0
  7  4  1  0
  8  6  1  0
  9  3  1  0
  9  8  1  0
 10  6  1  0
 11 10  1  0
 12  7  1  0
 12 11  1  0
 13  9  1  0
 14 13  1  0
 15 12  2  0
 16 11  1  0
 17 16  1  0
M  END
>  <ID>  (1) 
conformer_0

$$$$
