
     RDKit          3D

 13 14  0  0  0  0  0  0  0  0999 V2000
   33.4978   20.5935   36.2159 O   0  0  0  0  0  0  0  0  0  0  0  0
   33.7978   19.2935   36.5159 C   0  0  0  0  0  0  0  0  0  0  0  0
   32.6978   18.3935   36.9159 C   0  0  0  0  0  0  0  0  0  0  0  0
   31.3978   18.7935   36.8159 O   0  0  0  0  0  0  0  0  0  0  0  0
   35.1978   18.8935   36.4159 C   0  0  0  0  0  0  0  0  0  0  0  0
   33.0978   16.9935   36.7159 C   0  0  0  0  0  0  0  0  0  0  0  0
   35.5978   17.5935   36.4159 C   0  0  0  0  0  0  0  0  0  0  0  0
   35.7978   19.6935   35.4159 O   0  0  0  0  0  0  0  0  0  0  0  0
   33.8978   16.4935   37.7159 O   0  0  0  0  0  0  0  0  0  0  0  0
   36.4978   17.1935   35.3159 O   0  0  0  0  0  0  0  0  0  0  0  0
   34.3978   16.6935   36.4159 C   0  0  0  0  0  0  0  0  0  0  0  0
   37.1978   20.0935   35.7159 C   0  0  0  0  0  0  0  0  0  0  0  0
   38.1978   20.8935   35.7159 O   0  0  0  0  0  0  0  0  0  0  0  0
  2  1  1  0
  3  2  1  0
  4  3  1  0
  5  2  1  0
  6  3  1  0
  7  5  1  0
  8  5  1  0
  9  6  1  0
 10  7  1  0
 11  6  1  0
 11  7  1  0
 11  9  1  0
 12  8  1  0
 13 12  2  0
M  END
>  <ID>  (1) 
conformer_0

$$$$
