
     RDKit          3D

 14 15  0  0  0  0  0  0  0  0999 V2000
   33.7432   20.4988   35.9320 O   0  0  0  0  0  0  0  0  0  0  0  0
   34.3432   19.2988   36.4320 C   0  0  0  0  0  0  0  0  0  0  0  0
   33.3432   18.2988   36.8320 C   0  0  0  0  0  0  0  0  0  0  0  0
   32.0432   18.9988   37.0320 O   0  0  0  0  0  0  0  0  0  0  0  0
   35.7432   18.8988   36.5320 C   0  0  0  0  0  0  0  0  0  0  0  0
   33.8432   17.0988   37.4320 C   0  0  0  0  0  0  0  0  0  0  0  0
   36.0432   17.4988   36.3320 C   0  0  0  0  0  0  0  0  0  0  0  0
   36.7432   19.7988   36.5320 O   0  0  0  0  0  0  0  0  0  0  0  0
   37.3432   17.1988   35.7320 O   0  0  0  0  0  0  0  0  0  0  0  0
   35.0432   16.4988   36.7320 C   0  0  0  0  0  0  0  0  0  0  0  0
   32.7432   16.1988   37.5320 O   0  0  0  0  0  0  0  0  0  0  0  0
   35.3432   15.1988   37.0320 O   0  0  0  0  0  0  0  0  0  0  0  0
   32.1432   17.9988   35.9320 C   0  0  0  0  0  0  0  0  0  0  0  0
   31.5432   18.9988   35.0320 O   0  0  0  0  0  0  0  0  0  0  0  0
  2  1  1  0
  3  2  1  0
  4  3  1  0
  5  2  1  0
  6  3  1  0
  7  5  1  0
  8  5  1  0
  9  7  1  0
 10  6  1  0
 10  7  1  0
 11  6  1  0
 12 10  1  0
 13  3  1  0
 13  4  1  0
 14 13  1  0
M  END
>  <ID>  (1) 
conformer_0

$$$$
