
     RDKit          3D

 10 10  0  0  0  0  0  0  0  0999 V2000
   33.7530   20.2885   35.9705 O   0  0  0  0  0  0  0  0  0  0  0  0
   34.0530   19.1885   36.5705 C   0  0  0  0  0  0  0  0  0  0  0  0
   33.0530   18.0885   36.6705 C   0  0  0  0  0  0  0  0  0  0  0  0
   35.3530   18.5885   36.6705 C   0  0  0  0  0  0  0  0  0  0  0  0
   35.2530   17.3885   37.4705 O   0  0  0  0  0  0  0  0  0  0  0  0
   33.8530   16.8885   37.4705 C   0  0  0  0  0  0  0  0  0  0  0  0
   36.6530   19.2885   36.4705 C   0  0  0  0  0  0  0  0  0  0  0  0
   31.7530   18.5885   37.0705 O   0  0  0  0  0  0  0  0  0  0  0  0
   37.7530   18.3885   36.8705 O   0  0  0  0  0  0  0  0  0  0  0  0
   33.0530   16.5885   38.4705 O   0  0  0  0  0  0  0  0  0  0  0  0
  2  1  1  0
  3  2  1  0
  4  2  1  0
  5  4  1  0
  6  3  1  0
  6  5  1  0
  7  4  1  0
  8  3  1  0
  9  7  1  0
 10  6  1  0
M  END
>  <ID>  (1) 
conformer_0

$$$$
