
     RDKit          3D

 15 16  0  0  0  0  0  0  0  0999 V2000
   33.4978   20.5935   36.2159 O   0  0  0  0  0  0  0  0  0  0  0  0
   33.7978   19.2935   36.5159 C   0  0  0  0  0  0  0  0  0  0  0  0
   32.6978   18.3935   36.9159 C   0  0  0  0  0  0  0  0  0  0  0  0
   31.4978   18.9935   37.1159 O   0  0  0  0  0  0  0  0  0  0  0  0
   35.0978   18.6935   36.4159 C   0  0  0  0  0  0  0  0  0  0  0  0
   33.1978   17.0935   37.3159 C   0  0  0  0  0  0  0  0  0  0  0  0
   35.6978   17.5935   37.2159 C   0  0  0  0  0  0  0  0  0  0  0  0
   36.0978   19.6935   36.1159 O   0  0  0  0  0  0  0  0  0  0  0  0
   34.3978   16.8935   37.7159 O   0  0  0  0  0  0  0  0  0  0  0  0
   36.6978   17.2935   37.9159 O   0  0  0  0  0  0  0  0  0  0  0  0
   37.3978   19.2935   36.5159 C   0  0  0  0  0  0  0  0  0  0  0  0
   37.5978   18.1935   37.3159 C   0  0  0  0  0  0  0  0  0  0  0  0
   38.5978   19.7935   35.8159 O   0  0  0  0  0  0  0  0  0  0  0  0
   32.0978   16.2935   37.9159 C   0  0  0  0  0  0  0  0  0  0  0  0
   32.4978   14.9935   38.3159 O   0  0  0  0  0  0  0  0  0  0  0  0
  2  1  1  0
  3  2  2  0
  4  3  1  0
  5  2  1  0
  6  3  1  0
  7  5  2  0
  8  5  1  0
  9  6  1  0
  9  7  1  0
 10  7  1  0
 11  8  1  0
 12 10  1  0
 12 11  1  0
 13 11  2  0
 14  6  1  0
 15 14  1  0
M  END
>  <ID>  (1) 
conformer_0

$$$$
