
     RDKit          3D

 16 18  0  0  0  0  0  0  0  0999 V2000
   33.7432   20.4988   35.9320 O   0  0  0  0  0  0  0  0  0  0  0  0
   34.0432   19.2988   36.5320 C   0  0  0  0  0  0  0  0  0  0  0  0
   33.1432   18.2988   36.7320 C   0  0  0  0  0  0  0  0  0  0  0  0
   35.4432   18.8988   36.6320 C   0  0  0  0  0  0  0  0  0  0  0  0
   31.7432   18.7988   36.9320 O   0  0  0  0  0  0  0  0  0  0  0  0
   35.6432   17.4988   37.0320 C   0  0  0  0  0  0  0  0  0  0  0  0
   36.6432   19.6988   36.6320 O   0  0  0  0  0  0  0  0  0  0  0  0
   37.8432   19.4988   35.8320 P   0  0  0  0  0  4  0  0  0  0  0  0
   38.3432   20.8988   35.8320 O   0  0  0  0  0  1  0  0  0  0  0  0
   37.8432   18.5988   34.6320 O   0  0  0  0  0  0  0  0  0  0  0  0
   34.7432   16.7988   37.7320 O   0  0  0  0  0  0  0  0  0  0  0  0
   33.4432   16.9988   37.3320 C   0  0  0  0  0  0  0  0  0  0  0  0
   38.8432   18.8988   36.7320 O   0  0  0  0  0  0  0  0  0  0  0  0
   35.8432   17.7988   35.6320 C   0  0  0  0  0  0  0  0  0  0  0  0
   33.3432   17.0988   35.9319 C   0  0  0  0  0  0  0  0  0  0  0  0
   32.4432   16.3988   35.1320 O   0  0  0  0  0  0  0  0  0  0  0  0
  2  1  1  0
  3  2  1  0
  4  2  1  0
  5  3  1  0
  6  4  1  0
  7  4  1  0
  8  7  1  0
  9  8  2  0
 10  8  1  0
 11  6  1  0
 12  3  1  0
 12 11  1  0
 13  8  1  0
 14  4  1  0
 14  6  1  0
 15  3  1  0
 15 12  1  0
 16 15  1  0
M  END
>  <ID>  (1) 
conformer_0

$$$$
