
     RDKit          3D

 17 19  0  0  0  0  0  0  0  0999 V2000
   33.6002   20.4371   35.8603 O   0  0  0  0  0  0  0  0  0  0  0  0
   34.0002   19.2371   36.5603 C   0  0  0  0  0  0  0  0  0  0  0  0
   33.0002   18.3371   36.9603 C   0  0  0  0  0  0  0  0  0  0  0  0
   31.7002   18.8371   36.9603 O   0  0  0  0  0  0  0  0  0  0  0  0
   35.4002   18.7371   36.4603 C   0  0  0  0  0  0  0  0  0  0  0  0
   33.4002   17.0371   37.4603 C   0  0  0  0  0  0  0  0  0  0  0  0
   35.4002   17.3371   36.0603 C   0  0  0  0  0  0  0  0  0  0  0  0
   36.1002   19.6371   35.6603 O   0  0  0  0  0  0  0  0  0  0  0  0
   37.5002   19.3371   35.2603 P   0  0  0  0  0  4  0  0  0  0  0  0
   38.3002   20.5371   35.6603 O   0  0  0  0  0  1  0  0  0  0  0  0
   37.7002   17.9371   35.7603 O   0  0  0  0  0  0  0  0  0  0  0  0
   38.0002   19.1371   33.8603 O   0  0  0  0  0  0  0  0  0  0  0  0
   34.7002   16.6371   37.1603 O   0  0  0  0  0  0  0  0  0  0  0  0
   36.8002   16.8371   35.9603 C   0  0  0  0  0  0  0  0  0  0  0  0
   32.2002   16.3371   37.6603 O   0  0  0  0  0  0  0  0  0  0  0  0
   31.9002   18.0371   35.8603 C   0  0  0  0  0  0  0  0  0  0  0  0
   31.4002   18.9371   34.8603 O   0  0  0  0  0  0  0  0  0  0  0  0
  2  1  1  0
  3  2  1  0
  4  3  1  0
  5  2  1  0
  6  3  1  0
  7  5  1  0
  8  5  1  0
  9  8  1  0
 10  9  2  0
 11  9  1  0
 12  9  1  0
 13  6  1  0
 13  7  1  0
 14  7  1  0
 14 11  1  0
 15  6  2  0
 16  3  1  0
 16  4  1  0
 17 16  1  0
M  END
>  <ID>  (1) 
conformer_0

$$$$
