
     RDKit          3D

 17 17  0  0  0  0  0  0  0  0999 V2000
   33.7792   20.7253   36.0731 O   0  0  0  0  0  0  0  0  0  0  0  0
   33.8792   19.4253   36.4731 C   0  0  0  0  0  0  0  0  0  0  0  0
   32.8792   18.4253   36.8731 C   0  0  0  0  0  0  0  0  0  0  0  0
   31.6792   18.9253   36.9731 O   0  0  0  0  0  0  0  0  0  0  0  0
   35.2792   18.9253   36.4731 C   0  0  0  0  0  0  0  0  0  0  0  0
   33.5792   17.2253   37.2731 C   0  0  0  0  0  0  0  0  0  0  0  0
   34.9792   17.3253   36.7731 C   0  0  0  0  0  0  0  0  0  0  0  0
   35.9792   19.1253   35.1731 O   0  0  0  0  0  0  0  0  0  0  0  0
   37.2792   19.6253   34.8731 P   0  0  0  0  0  4  0  0  0  0  0  0
   37.8792   20.7253   35.6731 O   0  0  0  0  0  1  0  0  0  0  0  0
   38.1792   19.2253   33.7731 O   0  0  0  0  0  0  0  0  0  0  0  0
   35.9792   16.7253   37.5731 O   0  0  0  0  0  0  0  0  0  0  0  0
   33.1792   16.4253   38.2731 O   0  0  0  0  0  0  0  0  0  0  0  0
   36.9792   15.9253   36.8731 C   0  0  0  0  0  0  0  0  0  0  0  0
   37.8792   18.5253   35.6731 O   0  0  0  0  0  0  0  0  0  0  0  0
   38.1792   15.4253   37.5731 C   0  0  0  0  0  0  0  0  0  0  0  0
   36.6792   15.9253   35.4731 O   0  0  0  0  0  0  0  0  0  0  0  0
  2  1  1  0
  3  2  2  0
  4  3  1  0
  5  2  1  0
  6  3  1  0
  7  5  1  0
  7  6  1  0
  8  5  1  0
  9  8  1  0
 10  9  2  0
 11  9  1  0
 12  7  1  0
 13  6  1  0
 14 12  1  0
 15  9  1  0
 16 14  1  0
 17 14  2  0
M  END
>  <ID>  (1) 
conformer_0

$$$$
