
     RDKit          3D

 15 16  0  0  0  0  0  0  0  0999 V2000
   33.7432   20.4988   35.9320 O   0  0  0  0  0  0  0  0  0  0  0  0
   34.0432   19.2988   36.5320 C   0  0  0  0  0  0  0  0  0  0  0  0
   33.0432   18.2988   36.6320 C   0  0  0  0  0  0  0  0  0  0  0  0
   31.7432   18.8988   36.6320 O   0  0  0  0  0  0  0  0  0  0  0  0
   35.4432   18.8988   36.6320 C   0  0  0  0  0  0  0  0  0  0  0  0
   33.6432   17.0988   37.1320 C   0  0  0  0  0  0  0  0  0  0  0  0
   35.8432   17.4988   36.5320 C   0  0  0  0  0  0  0  0  0  0  0  0
   36.4432   19.7988   36.4319 O   0  0  0  0  0  0  0  0  0  0  0  0
   37.2432   17.3988   36.2320 O   0  0  0  0  0  0  0  0  0  0  0  0
   37.6432   18.7988   36.2320 P   0  0  0  0  0  4  0  0  0  0  0  0
   38.6432   19.4988   35.6320 O   0  0  0  0  0  1  0  0  0  0  0  0
   34.6432   16.7988   36.0320 C   0  0  0  0  0  0  0  0  0  0  0  0
   34.9432   15.3988   35.8320 O   0  0  0  0  0  0  0  0  0  0  0  0
   38.3432   18.7988   37.5320 O   0  0  0  0  0  0  0  0  0  0  0  0
   32.7432   15.9988   37.5320 O   0  0  0  0  0  0  0  0  0  0  0  0
  2  1  1  0
  3  2  1  0
  4  3  1  0
  5  2  1  0
  6  3  1  0
  7  5  1  0
  8  5  1  0
  9  7  1  0
 10  8  1  0
 10  9  1  0
 11 10  2  0
 12  6  1  0
 12  7  1  0
 13 12  1  0
 14 10  1  0
 15  6  1  0
M  END
>  <ID>  (1) 
conformer_0

$$$$
