
     RDKit          3D

 10 10  0  0  0  0  0  0  0  0999 V2000
   33.5175   20.9452   35.9516 O   0  0  0  0  0  0  0  0  0  0  0  0
   33.8175   19.6452   36.3517 C   0  0  0  0  0  0  0  0  0  0  0  0
   32.7175   18.6452   36.4516 C   0  0  0  0  0  0  0  0  0  0  0  0
   31.8175   19.0452   35.3517 O   0  0  0  0  0  0  0  0  0  0  0  0
   35.1175   18.9452   36.2517 C   0  0  0  0  0  0  0  0  0  0  0  0
   33.2175   17.4452   37.1516 C   0  0  0  0  0  0  0  0  0  0  0  0
   34.9175   17.5452   36.7517 C   0  0  0  0  0  0  0  0  0  0  0  0
   36.2175   19.6452   36.2517 O   0  0  0  0  0  0  0  0  0  0  0  0
   35.8175   17.1452   37.6517 O   0  0  0  0  0  0  0  0  0  0  0  0
   32.9175   16.2452   37.2516 O   0  0  0  0  0  0  0  0  0  0  0  0
  2  1  1  0
  3  2  1  0
  4  3  1  0
  5  2  1  0
  6  3  1  0
  7  5  1  0
  7  6  1  0
  8  5  1  0
  9  7  1  0
 10  6  2  0
M  END
>  <ID>  (1) 
conformer_0

$$$$
