
     RDKit          3D

 14 14  0  0  0  0  0  0  0  0999 V2000
   31.9557   19.1169   35.3093 O   0  0  0  0  0  0  0  0  0  0  0  0
   32.6557   18.5169   36.4093 C   0  0  0  0  0  0  0  0  0  0  0  0
   33.9557   19.1169   36.6093 C   0  0  0  0  0  0  0  0  0  0  0  0
   34.0557   20.3169   35.9093 O   0  0  0  0  0  0  0  0  0  0  0  0
   31.8557   17.8169   37.4093 C   0  0  0  0  0  0  0  0  0  0  0  0
   30.6557   18.5169   37.7093 O   0  0  0  0  0  0  0  0  0  0  0  0
   35.0557   18.2169   37.0093 C   0  0  0  0  0  0  0  0  0  0  0  0
   34.2557   17.1169   37.6093 O   0  0  0  0  0  0  0  0  0  0  0  0
   31.9557   16.4169   37.6093 C   0  0  0  0  0  0  0  0  0  0  0  0
   31.0557   15.5169   38.1093 O   0  0  0  0  0  0  0  0  0  0  0  0
   33.4557   16.2169   37.2093 C   0  0  0  0  0  0  0  0  0  0  0  0
   36.2557   18.4169   36.9093 O   0  0  0  0  0  0  0  0  0  0  0  0
   33.8557   14.8169   36.9093 C   0  0  0  0  0  0  0  0  0  0  0  0
   35.2557   14.6169   37.0093 O   0  0  0  0  0  0  0  0  0  0  0  0
  2  1  1  0
  3  2  1  0
  4  3  1  0
  5  2  1  0
  6  5  1  0
  7  3  1  0
  8  7  1  0
  9  5  1  0
 10  9  1  0
 11  8  1  0
 11  9  1  0
 12  7  2  0
 13 11  1  0
 14 13  1  0
M  END
>  <ID>  (1) 
conformer_0

$$$$
